/batch
/config,noeldb,1     ! force off writing results to database
*get,_wallstrt,active,,time,wall
! ANSYS input file written by Workbench version 2024 R2
! File used for geometry attach: D:\OJT\testing_files\dp0\Geom-2\DM\Geom-2.scdoc
/title,testing--Static Structural (C5)
! ****** Begin Custom Load Command Snippet ******
/COM, ACT Extensions:
/COM,     LSDYNA, 2024.2
/COM,     5f463412-bd3e-484b-87e7-cbc0a665e474, wbex
/COM,/COM,     ANSYSMotion, 2024.2
/COM,     20180725-3f81-49eb-9f31-41364844c769, wbex
/COM,
! ****** End   Custom Load Command Snippet ******
*DIM,_wb_ProjectScratch_dir,string,248
_wb_ProjectScratch_dir(1) = 'D:\OJT\testing_files\dp0\SYS-4\MECH\'
*DIM,_wb_SolverFiles_dir,string,248
_wb_SolverFiles_dir(1) = 'D:\OJT\testing_files\dp0\SYS-4\MECH\'
*DIM,_wb_userfiles_dir,string,248
_wb_userfiles_dir(1) = 'D:\OJT\testing_files\user_files\'
/com,--- Data in consistent NMM units. See Solving Units in the help system for more information.
/units,MPA
/nopr
/wb,file,start              !  signify a WB generated input file
/prep7
! Turn off shape checking because checks already performed inside WB mesher.
! See help system for more information.
SHPP,OFF,,NOWARN
/nolist
etcon,set             ! allow ANSYS to choose best KEYOP's for 180x elements, resets any applicable keyopt to MAPDL defaults
/com,*********** Nodes for the whole assembly ***********
nblock,3,,500
(1i9,3e20.9e3)
        1     0.000000000E+00     0.000000000E+00    -1.250000000E+02
        2     0.000000000E+00     1.000000000E+01    -1.250000000E+02
        3    -3.000000000E+02     0.000000000E+00    -1.250000000E+02
        4    -2.823529412E+02     0.000000000E+00    -1.250000000E+02
        5    -2.647058824E+02     0.000000000E+00    -1.250000000E+02
        6    -2.470588235E+02     0.000000000E+00    -1.250000000E+02
        7    -2.294117647E+02     0.000000000E+00    -1.250000000E+02
        8    -2.117647059E+02     0.000000000E+00    -1.250000000E+02
        9    -1.941176471E+02     0.000000000E+00    -1.250000000E+02
       10    -1.764705882E+02     0.000000000E+00    -1.250000000E+02
       11    -1.588235294E+02     0.000000000E+00    -1.250000000E+02
       12    -1.411764706E+02     0.000000000E+00    -1.250000000E+02
       13    -1.235294118E+02     0.000000000E+00    -1.250000000E+02
       14    -1.058823529E+02     0.000000000E+00    -1.250000000E+02
       15    -8.823529412E+01     0.000000000E+00    -1.250000000E+02
       16    -7.058823529E+01     0.000000000E+00    -1.250000000E+02
       17    -5.294117647E+01     0.000000000E+00    -1.250000000E+02
       18    -3.529411765E+01     0.000000000E+00    -1.250000000E+02
       19    -1.764705882E+01     0.000000000E+00    -1.250000000E+02
       20    -3.000000000E+02     1.000000000E+01    -1.250000000E+02
! ... 436 like lines cut
/wb,elem,start            !  set before creation of elements
/com,*********** Elements for Body 1 'Plate' ***********
et,1,185
eblock,19,solid,,265
(19i9)
        1        1        1        1        0        0        0        0        8        0        1       96      112      105      105      123      123      123      123
        1        1        1        1        0        0        0        0        8        0        2       96      123       99       99      112      112      112      112
        1        1        1        1        0        0        0        0        8        0        3       96      132      123      123      105      105      105      105
        1        1        1        1        0        0        0        0        8        0        4       90      105       96       96      112      112      112      112
        1        1        1        1        0        0        0        0        8        0        5       90      112       96       96       99       99       99       99
        1        1        1        1        0        0        0        0        8        0        6       99      121      112      112      123      123      123      123
        1        1        1        1        0        0        0        0        8        0        7       84       99       96       96      123      123      123      123
        1        1        1        1        0        0        0        0        8        0        8       96      132      105      105      122      122      122      122
        1        1        1        1        0        0        0        0        8        0        9       83       96      132      132      123      123      123      123
        1        1        1        1        0        0        0        0        8        0       10       90      109      105      105      112      112      112      112
        1        1        1        1        0        0        0        0        8        0       11       90      112       99       99      117      117      117      117
        1        1        1        1        0        0        0        0        8        0       12       84      121       99       99      123      123      123      123
        1        1        1        1        0        0        0        0        8        0       13       99      131      112      112      121      121      121      121
        1        1        1        1        0        0        0        0        8        0       14       83       96      123      123       84       84       84       84
        1        1        1        1        0        0        0        0        8        0       15       96      105      126      126      122      122      122      122
        1        1        1        1        0        0        0        0        8        0       16       96       98      132      132      122      122      122      122
        1        1        1        1        0        0        0        0        8        0       17       56      123       83       83      132      132      132      132
        1        1        1        1        0        0        0        0        8        0       18       82       96      132      132       83       83       83       83
        1        1        1        1        0        0        0        0        8        0       19       90      112      117      117      109      109      109      109
        1        1        1        1        0        0        0        0        8        0       20       90      109      126      126      105      105      105      105
! ... 246 like lines cut
! Material Id = {74FCC8DB-7E2C-4D34-B0BF-59E91014FE43}
/com,*********** Elements for Body 2 'Lower Die' ***********
et,2,185
eblock,19,solid,,339
(19i9)
        2        2        2        2        0        0        0        0        8        0      266      137      140      155      155      290      290      290      290
        2        2        2        2        0        0        0        0        8        0      267      137      155      215      215      290      290      290      290
        2        2        2        2        0        0        0        0        8        0      268      137      216      138      138      290      290      290      290
        2        2        2        2        0        0        0        0        8        0      269      137      138      140      140      290      290      290      290
        2        2        2        2        0        0        0        0        8        0      270      138      216      217      217      290      290      290      290
        2        2        2        2        0        0        0        0        8        0      271      138      217      153      153      290      290      290      290
        2        2        2        2        0        0        0        0        8        0      272      152      290      153      153      217      217      217      217
        2        2        2        2        0        0        0        0        8        0      273      155      215      290      290      288      288      288      288
        2        2        2        2        0        0        0        0        8        0      274      140      155      290      290      288      288      288      288
        2        2        2        2        0        0        0        0        8        0      275      137      215      216      216      290      290      290      290
        2        2        2        2        0        0        0        0        8        0      276      138      153      140      140      290      290      290      290
        2        2        2        2        0        0        0        0        8        0      277      216      290      264      264      217      217      217      217
        2        2        2        2        0        0        0        0        8        0      278      141      152      290      290      153      153      153      153
        2        2        2        2        0        0        0        0        8        0      279      140      141      290      290      153      153      153      153
        2        2        2        2        0        0        0        0        8        0      280      141      264      290      290      152      152      152      152
        2        2        2        2        0        0        0        0        8        0      281      140      290      141      141      288      288      288      288
        2        2        2        2        0        0        0        0        8        0      282      141      290      264      264      288      288      288      288
        2        2        2        2        0        0        0        0        8        0      283      277      289      278      278      283      283      283      283
        2        2        2        2        0        0        0        0        8        0      284      258      278      289      289      283      283      283      283
        2        2        2        2        0        0        0        0        8        0      285      276      278      277      277      289      289      289      289
! ... 320 like lines cut
! Material Id = {A3093036-FF09-4E71-B329-10478565D830}
/com,*********** Elements for Body 3 'Upper Die' ***********
et,3,185
eblock,19,solid,,374
(19i9)
        3        3        3        3        0        0        0        0        8        0      605      295      296      455      455      450      450      450      450
        3        3        3        3        0        0        0        0        8        0      606      295      455      296      296      354      354      354      354
        3        3        3        3        0        0        0        0        8        0      607      295      455      348      348      450      450      450      450
        3        3        3        3        0        0        0        0        8        0      608      295      348      455      455      354      354      354      354
        3        3        3        3        0        0        0        0        8        0      609      348      455      367      367      450      450      450      450
        3        3        3        3        0        0        0        0        8        0      610      348      455      366      366      367      367      367      367
        3        3        3        3        0        0        0        0        8        0      611      296      455      353      353      354      354      354      354
        3        3        3        3        0        0        0        0        8        0      612      348      455      354      354      366      366      366      366
        3        3        3        3        0        0        0        0        8        0      613      367      455      424      424      450      450      450      450
        3        3        3        3        0        0        0        0        8        0      614      366      367      455      455      424      424      424      424
        3        3        3        3        0        0        0        0        8        0      615      296      424      455      455      450      450      450      450
        3        3        3        3        0        0        0        0        8        0      616      437      454      438      438      446      446      446      446
        3        3        3        3        0        0        0        0        8        0      617      437      439      438      438      454      454      454      454
        3        3        3        3        0        0        0        0        8        0      618      371      438      454      454      446      446      446      446
        3        3        3        3        0        0        0        0        8        0      619      371      438      372      372      454      454      454      454
        3        3        3        3        0        0        0        0        8        0      620      327      371      454      454      446      446      446      446
        3        3        3        3        0        0        0        0        8        0      621      327      372      454      454      371      371      371      371
        3        3        3        3        0        0        0        0        8        0      622      428      454      437      437      446      446      446      446
        3        3        3        3        0        0        0        0        8        0      623      428      439      437      437      454      454      454      454
        3        3        3        3        0        0        0        0        8        0      624      327      372      328      328      454      454      454      454
! ... 355 like lines cut
! Material Id = {6C4F2C9F-937E-4F95-AFE9-C4F5945E4210}
/wb,elem,end               !  done creating elements
/com,*********** Send User Defined Coordinate System(s) ***********
csys,0
toffst,273.15,      ! Temperature offset from absolute zero
/com,*********** Set Reference Temperature ***********
tref,22.
/wb,mat,start              !  starting to send materials
/com,*********** Send Materials ***********

TB,PRONY,1,1,6,BULK
TBTEMP,869
TBDATA,1,0.0222,5.009e-05,0.0224,0.0009945,0.0286,0.002022
TBDATA,7,0.2137,0.01925,0.394,0.1199,0.3191,2.033

TB,PRONY,1,1,6,SHEAR
TBTEMP,595.85
TBDATA,1,0.05523,6.658e-05,0.08205,0.001197,0.1215,0.01514
TBDATA,7,0.2286,0.1672,0.286,0.7497,0.22662,3.292
MP,DENS,1,2.74e-09,	! tonne mm^-3
MP,EX,1,70000,	! tonne s^-2 mm^-1
MP,NUXY,1,0.22,
MP,UVID,1,97a6bb41-32eb-488c-bbc2-9600d081f55b

Temperature = 'TEMP' ! Temperature
MP,DENS,2,4.62e-09,	! tonne mm^-3
MP,ALPX,2,9.4e-06,	! C^-1
MP,C,2,522000000,	! mm^2 s^-2 C^-1
MP,KXX,2,21.9,	! tonne mm s^-3 C^-1
MP,RSVX,2,0.0017,	! ohm mm
MP,EX,2,960000000000000,	! tonne s^-2 mm^-1
MP,NUXY,2,0.36,
MP,MURX,2,1,
MP,UVID,2,4267f603-c4b1-4a72-a44e-f31f2e73019a
MP,UMID,2,ac00e499-a019-415c-a3e1-67bd2d5c2f8c

Temperature = 'TEMP' ! Temperature
MP,DENS,3,4.62e-09,	! tonne mm^-3
MP,ALPX,3,9.4e-06,	! C^-1
MP,C,3,522000000,	! mm^2 s^-2 C^-1
MP,KXX,3,21.9,	! tonne mm s^-3 C^-1
MP,RSVX,3,0.0017,	! ohm mm
MP,EX,3,96000,	! tonne s^-2 mm^-1
MP,NUXY,3,0.36,
MP,MURX,3,1,
MP,UVID,3,283b7a77-d900-47ec-82e2-79ef1753b86c
MP,UMID,3,c4cc4a57-3226-45fe-b3f8-5a83eb845bd6

/wb,mat,end                !  done sending materials
!************************* Model Summary ********************
!Plate,	VISCO,	matid,	1
!Lower Die,	Titanium Alloy_Custom,	matid,	2
!Upper Die,	Titanium Alloy,	matid,	3
!************************* End Model Summary ********************
! get the diagonal of the bounding box. Needed later for other things
*get,_xmin,node,,mnloc,x
*get,_ymin,node,,mnloc,y
*get,_zmin,node,,mnloc,z
*get,_xmax,node,,mxloc,x
*get,_ymax,node,,mxloc,y
*get,_zmax,node,,mxloc,z
_ASMDIAG=(_xmax-_xmin)*(_xmax-_xmin)+(_ymax-_ymin)*(_ymax-_ymin)+(_zmax-_zmin)*(_zmax-_zmin)
_ASMDIAG=SQRT(_ASMDIAG)
/wb,contact,start          !  starting to send contact
/com,*********** Create Contact "Frictional - No Selection To No Selection" ***********
/com,            Real Constant Set For Above Contact Is 5 & 4 
*set,tid,5
*set,cid,4
r,tid
r,cid
et,tid,170
et,cid,174
eblock,10,,,69
(15i9)
     1841        5        5        5        0       30       31       93       93
     1842        5        5        5        0       29       30       93       93
     1843        5        5        5        0       71       94       72       72
     1844        5        5        5        0       72       94       75       75
     1845        5        5        5        0       75       94       76       76
     1846        5        5        5        0       70       94       71       71
     1847        5        5        5        0       79       95       80       80
     1848        5        5        5        0       78       95       79       79
     1849        5        5        5        0       74       85       86       86
     1850        5        5        5        0       26       27       91       91
     1851        5        5        5        0       33       34       90       90
     1852        5        5        5        0       20       89       36       36
     1853        5        5        5        0        2       21       68       68
     1854        5        5        5        0       72       75       73       73
     1855        5        5        5        0       92      100       94       94
     1856        5        5        5        0       96       98      102      102
     1857        5        5        5        0       91      101       95       95
     1858        5        5        5        0       91       95      100      100
     1859        5        5        5        0       67       73       75       75
     1860        5        5        5        0       91      100       92       92
! ... 50 like lines cut
eblock,10,,,69
(15i9)
     1910        4        4        4        0       30       31       93       93
     1911        4        4        4        0       29       30       93       93
     1912        4        4        4        0       71       94       72       72
     1913        4        4        4        0       72       94       75       75
     1914        4        4        4        0       75       94       76       76
     1915        4        4        4        0       70       94       71       71
     1916        4        4        4        0       79       95       80       80
     1917        4        4        4        0       78       95       79       79
     1918        4        4        4        0       74       85       86       86
     1919        4        4        4        0       26       27       91       91
     1920        4        4        4        0       33       34       90       90
     1921        4        4        4        0       20       89       36       36
     1922        4        4        4        0        2       21       68       68
     1923        4        4        4        0       72       75       73       73
     1924        4        4        4        0       92      100       94       94
     1925        4        4        4        0       96       98      102      102
     1926        4        4        4        0       91      101       95       95
     1927        4        4        4        0       91       95      100      100
     1928        4        4        4        0       67       73       75       75
     1929        4        4        4        0       91      100       92       92
! ... 50 like lines cut
eblock,10,,,148
(15i9)
     1979        4        5        4        0      311      429      312      312
     1980        4        5        4        0      430      434      431      431
     1981        4        5        4        0      329      427      330      330
     1982        4        5        4        0      330      427      331      331
     1983        4        5        4        0      305      430      306      306
     1984        4        5        4        0      313      431      314      314
     1985        4        5        4        0      427      429      433      433
     1986        4        5        4        0      318      332      319      319
     1987        4        5        4        0      312      429      313      313
     1988        4        5        4        0      313      429      431      431
     1989        4        5        4        0      314      431      315      315
     1990        4        5        4        0      306      430      432      432
     1991        4        5        4        0      306      432      307      307
     1992        4        5        4        0      301      317      303      303
     1993        4        5        4        0      325      432      326      326
     1994        4        5        4        0      309      324      310      310
     1995        4        5        4        0      428      436      432      432
     1996        4        5        4        0      291      308      325      325
     1997        4        5        4        0      429      435      433      433
     1998        4        5        4        0      427      436      428      428
! ... 129 like lines cut
eblock,10,,,148
(15i9)
     2127        5        4        5        0      311      429      312      312
     2128        5        4        5        0      430      434      431      431
     2129        5        4        5        0      329      427      330      330
     2130        5        4        5        0      330      427      331      331
     2131        5        4        5        0      305      430      306      306
     2132        5        4        5        0      313      431      314      314
     2133        5        4        5        0      427      429      433      433
     2134        5        4        5        0      318      332      319      319
     2135        5        4        5        0      312      429      313      313
     2136        5        4        5        0      313      429      431      431
     2137        5        4        5        0      314      431      315      315
     2138        5        4        5        0      306      430      432      432
     2139        5        4        5        0      306      432      307      307
     2140        5        4        5        0      301      317      303      303
     2141        5        4        5        0      325      432      326      326
     2142        5        4        5        0      309      324      310      310
     2143        5        4        5        0      428      436      432      432
     2144        5        4        5        0      291      308      325      325
     2145        5        4        5        0      429      435      433      433
     2146        5        4        5        0      427      436      428      428
! ... 129 like lines cut
keyo,cid,8,2               ! auto create asymmetric contact (from Program Controlled setting)
keyo,cid,10,0              ! adjust contact stiffness each NR iteration (from Program Controlled setting)
keyo,cid,12,0              ! standard contact
mp,mu,cid,0.2       ! unitless
keyo,cid,2,0               ! augmented Lagrange (from Program Controlled setting)
keyo,cid,4,0               ! on Gauss point (from Program Controlled setting)
keyo,cid,9,0               ! use real geometry with stepped effects
keyo,cid,7,0               ! No Prediction
rmod,tid,3,1.       ! FKN
rmod,tid,5,0.       ! ICONT
rmod,tid,6,0.       ! PINB
rmod,tid,10,0.      ! CNOF
rmod,tid,12,0.      ! FKT
rmod,tid,36,40      ! WB DSID
rmod,cid,3,1.       ! FKN
rmod,cid,5,0.       ! ICONT
rmod,cid,6,0.       ! PINB
rmod,cid,10,0.      ! CNOF
rmod,cid,12,0.      ! FKT
rmod,cid,36,40      ! WB DSID
/com,*********** Create Contact "Frictional - No Selection To No Selection" ***********
/com,            Real Constant Set For Above Contact Is 7 & 6 
*set,tid,7
*set,cid,6
r,tid
r,cid
et,tid,170
et,cid,174
eblock,10,,,108
(15i9)
     2275        7        7        7        0      107      129      124      124
     2276        7        7        7        0      108      110      134      134
     2277        7        7        7        0      113      120      130      130
     2278        7        7        7        0      122      126      125      125
     2279        7        7        7        0      106      115      118      118
     2280        7        7        7        0      107      115      129      129
     2281        7        7        7        0      109      114      126      126
     2282        7        7        7        0      108      118      115      115
     2283        7        7        7        0      107      124      113      113
     2284        7        7        7        0      106      128      115      115
     2285        7        7        7        0      114      125      126      126
     2286        7        7        7        0      115      128      129      129
     2287        7        7        7        0      106      127      128      128
     2288        7        7        7        0      106      114      127      127
     2289        7        7        7        0      106      125      114      114
     2290        7        7        7        0      113      124      120      120
     2291        7        7        7        0      112      123      121      121
     2292        7        7        7        0      106      118      125      125
     2293        7        7        7        0      105      109      126      126
     2294        7        7        7        0      111      118      119      119
! ... 89 like lines cut
eblock,10,,,108
(15i9)
     2383        6        6        6        0      107      129      124      124
     2384        6        6        6        0      108      110      134      134
     2385        6        6        6        0      113      120      130      130
     2386        6        6        6        0      122      126      125      125
     2387        6        6        6        0      106      115      118      118
     2388        6        6        6        0      107      115      129      129
     2389        6        6        6        0      109      114      126      126
     2390        6        6        6        0      108      118      115      115
     2391        6        6        6        0      107      124      113      113
     2392        6        6        6        0      106      128      115      115
     2393        6        6        6        0      114      125      126      126
     2394        6        6        6        0      115      128      129      129
     2395        6        6        6        0      106      127      128      128
     2396        6        6        6        0      106      114      127      127
     2397        6        6        6        0      106      125      114      114
     2398        6        6        6        0      113      124      120      120
     2399        6        6        6        0      112      123      121      121
     2400        6        6        6        0      106      118      125      125
     2401        6        6        6        0      105      109      126      126
     2402        6        6        6        0      111      118      119      119
! ... 89 like lines cut
eblock,10,,,82
(15i9)
     2491        6        7        6        0      150      269      151      151
     2492        6        7        6        0      168      268      270      270
     2493        6        7        6        0      146      172      148      148
     2494        6        7        6        0      164      179      165      165
     2495        6        7        6        0      180      271      181      181
     2496        6        7        6        0      151      271      152      152
     2497        6        7        6        0      167      268      168      168
     2498        6        7        6        0      185      266      186      186
     2499        6        7        6        0      168      270      169      169
     2500        6        7        6        0      269      273      270      270
     2501        6        7        6        0      169      270      170      170
     2502        6        7        6        0      173      187      174      174
     2503        6        7        6        0      166      268      167      167
     2504        6        7        6        0      151      269      271      271
     2505        6        7        6        0      184      266      185      185
     2506        6        7        6        0      266      268      272      272
     2507        6        7        6        0      267      275      271      271
     2508        6        7        6        0      136      153      180      180
     2509        6        7        6        0      266      275      267      267
     2510        6        7        6        0      268      274      272      272
! ... 63 like lines cut
eblock,10,,,82
(15i9)
     2573        7        6        7        0      150      269      151      151
     2574        7        6        7        0      168      268      270      270
     2575        7        6        7        0      146      172      148      148
     2576        7        6        7        0      164      179      165      165
     2577        7        6        7        0      180      271      181      181
     2578        7        6        7        0      151      271      152      152
     2579        7        6        7        0      167      268      168      168
     2580        7        6        7        0      185      266      186      186
     2581        7        6        7        0      168      270      169      169
     2582        7        6        7        0      269      273      270      270
     2583        7        6        7        0      169      270      170      170
     2584        7        6        7        0      173      187      174      174
     2585        7        6        7        0      166      268      167      167
     2586        7        6        7        0      151      269      271      271
     2587        7        6        7        0      184      266      185      185
     2588        7        6        7        0      266      268      272      272
     2589        7        6        7        0      267      275      271      271
     2590        7        6        7        0      136      153      180      180
     2591        7        6        7        0      266      275      267      267
     2592        7        6        7        0      268      274      272      272
! ... 63 like lines cut
keyo,cid,8,2               ! auto create asymmetric contact (from Program Controlled setting)
keyo,cid,10,0              ! adjust contact stiffness each NR iteration (from Program Controlled setting)
keyo,cid,12,0              ! standard contact
mp,mu,cid,0.2       ! unitless
keyo,cid,2,0               ! augmented Lagrange (from Program Controlled setting)
keyo,cid,4,0               ! on Gauss point (from Program Controlled setting)
keyo,cid,9,0               ! use real geometry with stepped effects
keyo,cid,7,0               ! No Prediction
rmod,tid,3,1.       ! FKN
rmod,tid,5,0.       ! ICONT
rmod,tid,6,0.       ! PINB
rmod,tid,10,0.      ! CNOF
rmod,tid,12,0.      ! FKT
rmod,tid,36,43      ! WB DSID
rmod,cid,3,1.       ! FKN
rmod,cid,5,0.       ! ICONT
rmod,cid,6,0.       ! PINB
rmod,cid,10,0.      ! CNOF
rmod,cid,12,0.      ! FKT
rmod,cid,36,43      ! WB DSID
/com,*********** Create Contact "Contact Region 5" ***********
/com,            Real Constant Set For Above Contact Is 9 & 8 
*set,tid,9
*set,cid,8
r,tid
r,cid
et,tid,170
et,cid,174
eblock,10,,,60
(15i9)
     2655        9        9        9        0      107      129      124      124
     2656        9        9        9        0      108      110      134      134
     2657        9        9        9        0      113      120      130      130
     2658        9        9        9        0      106      115      118      118
     2659        9        9        9        0      107      115      129      129
     2660        9        9        9        0      108      118      115      115
     2661        9        9        9        0      107      124      113      113
     2662        9        9        9        0      106      128      115      115
     2663        9        9        9        0      115      128      129      129
     2664        9        9        9        0      106      127      128      128
     2665        9        9        9        0      106      114      127      127
     2666        9        9        9        0      106      125      114      114
     2667        9        9        9        0      113      124      120      120
     2668        9        9        9        0      106      118      125      125
     2669        9        9        9        0      111      118      119      119
     2670        9        9        9        0      108      119      118      118
     2671        9        9        9        0      110      113      116      116
     2672        9        9        9        0      107      113      110      110
     2673        9        9        9        0      113      130      116      116
     2674        9        9        9        0      111      125      118      118
! ... 41 like lines cut
eblock,10,,,60
(15i9)
     2715        8        8        8        0      107      129      124      124
     2716        8        8        8        0      108      110      134      134
     2717        8        8        8        0      113      120      130      130
     2718        8        8        8        0      106      115      118      118
     2719        8        8        8        0      107      115      129      129
     2720        8        8        8        0      108      118      115      115
     2721        8        8        8        0      107      124      113      113
     2722        8        8        8        0      106      128      115      115
     2723        8        8        8        0      115      128      129      129
     2724        8        8        8        0      106      127      128      128
     2725        8        8        8        0      106      114      127      127
     2726        8        8        8        0      106      125      114      114
     2727        8        8        8        0      113      124      120      120
     2728        8        8        8        0      106      118      125      125
     2729        8        8        8        0      111      118      119      119
     2730        8        8        8        0      108      119      118      118
     2731        8        8        8        0      110      113      116      116
     2732        8        8        8        0      107      113      110      110
     2733        8        8        8        0      113      130      116      116
     2734        8        8        8        0      111      125      118      118
! ... 41 like lines cut
eblock,10,,,66
(15i9)
     2775        8        9        8        0      251      254      259      259
     2776        8        9        8        0      249      252      260      260
     2777        8        9        8        0      250      253      256      256
     2778        8        9        8        0      237      252      238      238
     2779        8        9        8        0      198      199      252      252
     2780        8        9        8        0      196      247      204      204
     2781        8        9        8        0      249      258      253      253
     2782        8        9        8        0      250      256      255      255
     2783        8        9        8        0      251      257      252      252
     2784        8        9        8        0      199      200      252      252
     2785        8        9        8        0      249      260      258      258
     2786        8        9        8        0      249      251      252      252
     2787        8        9        8        0      226      241      229      229
     2788        8        9        8        0      197      198      236      236
     2789        8        9        8        0      251      259      257      257
     2790        8        9        8        0      198      252      236      236
     2791        8        9        8        0      236      252      237      237
     2792        8        9        8        0      250      254      251      251
     2793        8        9        8        0      228      235      242      242
     2794        8        9        8        0      249      250      251      251
! ... 47 like lines cut
eblock,10,,,66
(15i9)
     2841        9        8        9        0      251      254      259      259
     2842        9        8        9        0      249      252      260      260
     2843        9        8        9        0      250      253      256      256
     2844        9        8        9        0      237      252      238      238
     2845        9        8        9        0      198      199      252      252
     2846        9        8        9        0      196      247      204      204
     2847        9        8        9        0      249      258      253      253
     2848        9        8        9        0      250      256      255      255
     2849        9        8        9        0      251      257      252      252
     2850        9        8        9        0      199      200      252      252
     2851        9        8        9        0      249      260      258      258
     2852        9        8        9        0      249      251      252      252
     2853        9        8        9        0      226      241      229      229
     2854        9        8        9        0      197      198      236      236
     2855        9        8        9        0      251      259      257      257
     2856        9        8        9        0      198      252      236      236
     2857        9        8        9        0      236      252      237      237
     2858        9        8        9        0      250      254      251      251
     2859        9        8        9        0      228      235      242      242
     2860        9        8        9        0      249      250      251      251
! ... 47 like lines cut
keyo,cid,8,2               ! auto create asymmetric contact (from Program Controlled setting)
keyo,cid,10,0              ! adjust contact stiffness each NR iteration (from Program Controlled setting)
keyo,cid,12,5              ! bonded always
keyo,cid,18,1              ! small sliding turned on by application
keyo,cid,2,0               ! augmented Lagrange (from Program Controlled setting)
keyo,cid,4,0               ! on Gauss point (from Program Controlled setting)
keyo,cid,9,1               ! ignore initial gaps/penetration
keyo,cid,7,0               ! No Prediction
rmod,tid,3,1.       ! FKN
rmod,tid,5,0.       ! ICONT
rmod,tid,6,0.       ! PINB
rmod,tid,10,0.      ! CNOF
rmod,tid,12,0.      ! FKT
rmod,tid,36,27992   ! WB DSID
rmod,cid,3,1.       ! FKN
rmod,cid,5,0.       ! ICONT
rmod,cid,6,0.       ! PINB
rmod,cid,10,0.      ! CNOF
rmod,cid,12,0.      ! FKT
rmod,cid,36,27992   ! WB DSID
nsel,all
esel,all
/wb,contact,end            !  done creating contacts
/golist
/wb,load,start             !  starting to send loads
/com,*********** Fixed Supports ***********
CMBLOCK,_FIXEDSU,NODE,       75
(8i10)
       136       137       138       139       146       147       154       155
       156       163       164       165       166       167       168       169
       170       171       172       173       180       181       182       183
       184       185       186       187       188       189       196       197
       198       199       200       201       202       203       204       205
       206       207       208       209       210       211       212       213
       214       215       216       217       218       219       220       221
       222       223       224       225       226       227       228       229
       230       231       232       233       234       235       248       278
       279       281       282
cmsel,s,_FIXEDSU
d,all,all
nsel,all
/com,******* Constant Zero Displacement X *******
CMBLOCK,_DISPZEROUX,NODE,       63
(8i10)
       309       318       319       320       321       322       323       324
       335       336       337       338       339       340       341       342
       343       344       345       355       356       357       358       377
       378       379       380       381       382       383       384       385
       386       387       388       389       390       391       392       393
       394       395       396       397       398       399       400       401
       402       403       408       409       410       411       412       413
       414       415       416       417       418       419       426
cmsel,s,_DISPZEROUX
d,all,ux,0
nsel,all
/com,******* Constant Zero Displacement Z *******
CMBLOCK,_DISPZEROUZ,NODE,       42
(8i10)
       335       336       337       338       339       340       341       342
       343       377       378       379       380       381       382       383
       384       385       392       393       394       395       396       397
       398       399       400       401       402       403       408       409
       410       411       412       413       414       415       416       417
       418       419
cmsel,s,_DISPZEROUZ
d,all,uz,0
nsel,all
/com,*********** Create Displacement Tables and Functions ******

*DIM,_loadvari76yp,TABLE,5,1,1,TIME, , , 0
! Time values
*TAXIS,_loadvari76yp(1),1,0.,0.5,5.,10.,15.
! Load values
_loadvari76yp(1,1,1) = 0.
_loadvari76yp(2,1,1) = 0.
_loadvari76yp(3,1,1) = -25.
_loadvari76yp(4,1,1) = -25.
_loadvari76yp(5,1,1) = 0.



*DIM,_loadvari76yn,TABLE,5,1,1,TIME, , , 0
! Time values
*TAXIS,_loadvari76yn(1),1,0.,0.5,5.,10.,15.
! Load values
_loadvari76yn(1,1,1) = 0.
_loadvari76yn(2,1,1) = 0.
_loadvari76yn(3,1,1) = 25.
_loadvari76yn(4,1,1) = 25.
_loadvari76yn(5,1,1) = 0.


/gst,on,on
fini
*get,_numnode,node,0,count
*get,_numelem,elem,0,count
*get, _MAXELEMNUM, elem, 0, NUM, MAX
*get, _MAXNODENUM, node, 0, NUM, MAX
*get, _MAXELEMTYPE, etyp, 0, NUM, MAX
*get, _MAXREALCONST, rcon, 0, NUM, MAX
/go
/wb,load,end               !  done creating loads
/com,--- Number of total nodes = %_numnode%
/com,--- Number of contact elements = 1066
/com,--- Number of spring elements = 0
/com,--- Number of bearing elements = 0
/com,--- Number of solid elements = 978
/com,--- Number of condensed parts = 0
/com,--- Number of total elements = %_numelem%
*get,_wallbsol,active,,time,wall
/com,****************************************************************************
/com,*************************    SOLUTION       ********************************
/com,****************************************************************************
/solu
antype,4                   ! transient analysis type for quasi static solution
nlgeom,on                  ! Turn on Large Deformation Effects
_thickRatio=  0     ! Ratio of thick parts in the model
eqsl,sparse,,,,,1
nropt,full                 ! Use full Newton-Raphson
cntr,print,1               ! print out contact info and also make no initial contact an error
dmpoption,emat,no             ! Don't combine emat file for DANSYS
dmpoption,esav,no             ! Don't combine esav file for DANSYS
tintp,quas				   ! Backward Euler Time Integration for quasi static solution 
trnopt,,,,,,,,,yes        ! Enable numerical damping for quasi static solution
nldiag,cont,iter           ! print out contact info each equilibrium iteration
rescontrol,define,last,last,,dele	   ! Program Controlled
/com,****************************************************
/com,******************* SOLVE FOR LS 1 OF 3 ****************
/com,*** Set Displacements ***
CMBLOCK,_CM76UY_YP,NODE,       42
(8i10)
       335       336       337       338       339       340       341       342
       343       377       378       379       380       381       382       383
       384       385       392       393       394       395       396       397
       398       399       400       401       402       403       408       409
       410       411       412       413       414       415       416       417
       418       419
cmsel,s,_CM76UY_YP
d,all,uy,%_loadvari76yp%
nsel,all

/com,*** Component For All Non-Zero UY Displacements ***
cmsel,s,_CM76uy_yp
cm,_DISPNONZEROUY,NODE
nsel,all

/nopr
/gopr
autots,off                 ! User turned off automatic time stepping
deltim,3.75e-002,3.75e-002,3.75e-002
time,5.
outres,erase
outres,all,none
outres,nsol,all,
outres,rsol,all
outres,eangl,all
outres,etmp,all
outres,veng,all
outres,strs,all,
outres,epel,all,
outres,eppl,all,
outres,cont,all,
! *********** WB SOLVE COMMAND ***********
! check interactive state
*get,ANSINTER_,active,,int
*if,ANSINTER_,ne,0,then
/eof
*endif
solve
/com *************** Write FE CONNECTORS ********* 
CEWRITE,file,ce,,INTE
/com,****************************************************
/com,*************** FINISHED SOLVE FOR LS 1 *************
/com,****************************************************
/com,******************* SOLVE FOR LS 2 OF 3 ****************
/com,*** Set Displacements ***
/nopr
/gopr
autots,off                 ! User turned off automatic time stepping
deltim,3.75e-002,3.75e-002,3.75e-002
time,10.
outres,erase
outres,all,none
outres,nsol,all,
outres,rsol,all
outres,eangl,all
outres,etmp,all
outres,veng,all
outres,strs,all,
outres,epel,all,
outres,eppl,all,
outres,cont,all,
solve
/com,****************************************************
/com,*************** FINISHED SOLVE FOR LS 2 *************
/com,****************************************************
/com,******************* SOLVE FOR LS 3 OF 3 ****************
/com,*** Set Displacements ***
/nopr
/gopr
autots,off                 ! User turned off automatic time stepping
deltim,3.75e-002,3.75e-002,3.75e-002
time,15.
outres,erase
outres,all,none
outres,nsol,all,
outres,rsol,all
outres,eangl,all
outres,etmp,all
outres,veng,all
outres,strs,all,
outres,epel,all,
outres,eppl,all,
outres,cont,all,
solve
/com,****************************************************
/com,*************** FINISHED SOLVE FOR LS 3 *************
*get,_wallasol,active,,time,wall
/nopr
*get,_numnode,node,0,count
*get,_numelem,elem,0,count
*get, _MAXELEMNUM, elem, 0, NUM, MAX
*get, _MAXNODENUM, node, 0, NUM, MAX,,,INTERNAL
*get, _MAXELEMTYPE, etyp, 0, NUM, MAX
*get, _MAXREALCONST, rcon, 0, NUM, MAX
*get,_NSOLTHREADS,active,0,ntfs
*get,_NSOLPROCESSES,active,0,npfs
/gopr
/post1
xmlo,ENCODING,ISO-8859-1
xmlo,parm
/xml,parm,xml
fini
/gopr
*get,_walldone,active,,time,wall
_preptime=(_wallbsol-_wallstrt)*3600
_solvtime=(_wallasol-_wallbsol)*3600
_posttime=(_walldone-_wallasol)*3600
_totaltim=(_walldone-_wallstrt)*3600
*get,_dlbratio,active,0,solu,dlbr
*get,_combtime,active,0,solu,comb
*get,_ssmode,active,0,solu,ssmm
*get,_ndofs,active,0,solu,ndof
*get,_sol_end_time,active,0,set,time
*if,_sol_end_time,eq,15.000000,then
/fclean				!clean distributed files
*endif
/com,--- Total number of nodes = %_numnode%
/com,--- Total number of elements = %_numelem%
/com,--- Element load balance ratio = %_dlbratio%
/com,--- Time to combine distributed files = %_combtime%
/com,--- Sparse memory mode = %_ssmode%
/com,--- Number of DOF = %_ndofs%
/wb,file,end               ! done with WB generated input
