/batch
/config,noeldb,1     ! force off writing results to database
*get,_wallstrt,active,,time,wall
! ANSYS input file written by Workbench version 2024 R2
! File used for geometry attach: E:\ANK\WEEK_4\VISCO_WK4_3_files\dp0\Geom-4\DM\Geom-4.scdoc
/title,VISCO_WK4_3--Static Structural (B5)
! ****** Begin Custom Load Command Snippet ******
/COM, ACT Extensions:
/COM,     LSDYNA, 2024.2
/COM,     5f463412-bd3e-484b-87e7-cbc0a665e474, wbex
/COM,/COM,     ANSYSMotion, 2024.2
/COM,     20180725-3f81-49eb-9f31-41364844c769, wbex
/COM,
! ****** End   Custom Load Command Snippet ******
*DIM,_wb_ProjectScratch_dir,string,248
_wb_ProjectScratch_dir(1) = 'E:\ANK\WEEK_4\VISCO_WK4_3_files\dp0\SYS-4\MECH\'
*DIM,_wb_SolverFiles_dir,string,248
_wb_SolverFiles_dir(1) = 'E:\ANK\WEEK_4\VISCO_WK4_3_files\dp0\SYS-4\MECH\'
*DIM,_wb_userfiles_dir,string,248
_wb_userfiles_dir(1) = 'E:\ANK\WEEK_4\VISCO_WK4_3_files\user_files\'
/com,--- Data in consistent NMM units. See Solving Units in the help system for more information.
/units,MPA
/nopr
/wb,file,start              !  signify a WB generated input file
/prep7
! Turn off shape checking because checks already performed inside WB mesher.
! See help system for more information.
SHPP,OFF,,NOWARN
/nolist
etcon,set             ! allow ANSYS to choose best KEYOP's for 180x elements, resets any applicable keyopt to MAPDL defaults
/com,*********** Nodes for the whole assembly ***********
nblock,3,,499
(1i9,3e20.9e3)
        1     0.000000000E+00     0.000000000E+00    -1.250000000E+02
        2     0.000000000E+00     1.000000000E+01    -1.250000000E+02
        3    -3.000000000E+02     0.000000000E+00    -1.250000000E+02
        4    -2.823529412E+02     0.000000000E+00    -1.250000000E+02
        5    -2.647058824E+02     0.000000000E+00    -1.250000000E+02
        6    -2.470588235E+02     0.000000000E+00    -1.250000000E+02
        7    -2.294117647E+02     0.000000000E+00    -1.250000000E+02
        8    -2.117647059E+02     0.000000000E+00    -1.250000000E+02
        9    -1.941176471E+02     0.000000000E+00    -1.250000000E+02
       10    -1.764705882E+02     0.000000000E+00    -1.250000000E+02
       11    -1.588235294E+02     0.000000000E+00    -1.250000000E+02
       12    -1.411764706E+02     0.000000000E+00    -1.250000000E+02
       13    -1.235294118E+02     0.000000000E+00    -1.250000000E+02
       14    -1.058823529E+02     0.000000000E+00    -1.250000000E+02
       15    -8.823529412E+01     0.000000000E+00    -1.250000000E+02
       16    -7.058823529E+01     0.000000000E+00    -1.250000000E+02
       17    -5.294117647E+01     0.000000000E+00    -1.250000000E+02
       18    -3.529411765E+01     0.000000000E+00    -1.250000000E+02
       19    -1.764705882E+01     0.000000000E+00    -1.250000000E+02
       20    -3.000000000E+02     1.000000000E+01    -1.250000000E+02
! ... 435 like lines cut
/wb,elem,start            !  set before creation of elements
/com,*********** Elements for Body 1 'Plate' ***********
et,1,185
eblock,19,solid,,265
(19i9)
        1        1        1        1        0        0        0        0        8        0        1       96      112      105      105      123      123      123      123
        1        1        1        1        0        0        0        0        8        0        2       96      123       99       99      112      112      112      112
        1        1        1        1        0        0        0        0        8        0        3       96      132      123      123      105      105      105      105
        1        1        1        1        0        0        0        0        8        0        4       90      105       96       96      112      112      112      112
        1        1        1        1        0        0        0        0        8        0        5       90      112       96       96       99       99       99       99
        1        1        1        1        0        0        0        0        8        0        6       99      121      112      112      123      123      123      123
        1        1        1        1        0        0        0        0        8        0        7       84       99       96       96      123      123      123      123
        1        1        1        1        0        0        0        0        8        0        8       96      132      105      105      122      122      122      122
        1        1        1        1        0        0        0        0        8        0        9       83       96      132      132      123      123      123      123
        1        1        1        1        0        0        0        0        8        0       10       90      109      105      105      112      112      112      112
        1        1        1        1        0        0        0        0        8        0       11       90      112       99       99      117      117      117      117
        1        1        1        1        0        0        0        0        8        0       12       84      121       99       99      123      123      123      123
        1        1        1        1        0        0        0        0        8        0       13       99      131      112      112      121      121      121      121
        1        1        1        1        0        0        0        0        8        0       14       83       96      123      123       84       84       84       84
        1        1        1        1        0        0        0        0        8        0       15       96      105      126      126      122      122      122      122
        1        1        1        1        0        0        0        0        8        0       16       96       98      132      132      122      122      122      122
        1        1        1        1        0        0        0        0        8        0       17       56      123       83       83      132      132      132      132
        1        1        1        1        0        0        0        0        8        0       18       82       96      132      132       83       83       83       83
        1        1        1        1        0        0        0        0        8        0       19       90      112      117      117      109      109      109      109
        1        1        1        1        0        0        0        0        8        0       20       90      109      126      126      105      105      105      105
! ... 246 like lines cut
! Material Id = {74FCC8DB-7E2C-4D34-B0BF-59E91014FE43}
/com,*********** Elements for Body 2 'Lower Die' ***********
et,2,185
eblock,19,solid,,377
(19i9)
        2        2        2        2        0        0        0        0        8        0      266      229      282      230      230      265      265      265      265
        2        2        2        2        0        0        0        0        8        0      267      229      249      282      282      265      265      265      265
        2        2        2        2        0        0        0        0        8        0      268      228      265      249      249      229      229      229      229
        2        2        2        2        0        0        0        0        8        0      269      189      190      230      230      246      246      246      246
        2        2        2        2        0        0        0        0        8        0      270      228      249      265      265      256      256      256      256
        2        2        2        2        0        0        0        0        8        0      271      182      190      189      189      246      246      246      246
        2        2        2        2        0        0        0        0        8        0      272      227      249      228      228      256      256      256      256
        2        2        2        2        0        0        0        0        8        0      273      256      258      281      281      260      260      260      260
        2        2        2        2        0        0        0        0        8        0      274      227      262      249      249      256      256      256      256
        2        2        2        2        0        0        0        0        8        0      275      258      283      281      281      260      260      260      260
        2        2        2        2        0        0        0        0        8        0      276      256      257      281      281      258      258      258      258
        2        2        2        2        0        0        0        0        8        0      277      193      260      283      283      258      258      258      258
        2        2        2        2        0        0        0        0        8        0      278      145      148      248      248      149      149      149      149
        2        2        2        2        0        0        0        0        8        0      279      146      148      248      248      147      147      147      147
        2        2        2        2        0        0        0        0        8        0      280      226      262      247      247      227      227      227      227
        2        2        2        2        0        0        0        0        8        0      281      257      264      281      281      258      258      258      258
        2        2        2        2        0        0        0        0        8        0      282      145      248      148      148      147      147      147      147
        2        2        2        2        0        0        0        0        8        0      283      144      248      149      149      145      145      145      145
        2        2        2        2        0        0        0        0        8        0      284      225      226      262      262      247      247      247      247
        2        2        2        2        0        0        0        0        8        0      285      144      239      248      248      145      145      145      145
! ... 358 like lines cut
! Material Id = {A3093036-FF09-4E71-B329-10478565D830}
/com,*********** Elements for Body 3 'Upper Die' ***********
et,3,185
eblock,19,solid,,348
(19i9)
        3        3        3        3        0        0        0        0        8        0      643      341      348      454      454      451      451      451      451
        3        3        3        3        0        0        0        0        8        0      644      341      342      454      454      348      348      348      348
        3        3        3        3        0        0        0        0        8        0      645      343      410      454      454      446      446      446      446
        3        3        3        3        0        0        0        0        8        0      646      342      454      348      348      347      347      347      347
        3        3        3        3        0        0        0        0        8        0      647      348      446      454      454      451      451      451      451
        3        3        3        3        0        0        0        0        8        0      648      347      454      348      348      446      446      446      446
        3        3        3        3        0        0        0        0        8        0      649      342      454      347      347      343      343      343      343
        3        3        3        3        0        0        0        0        8        0      650      310      341      454      454      451      451      451      451
        3        3        3        3        0        0        0        0        8        0      651      310      341      342      342      454      454      454      454
        3        3        3        3        0        0        0        0        8        0      652      401      454      410      410      446      446      446      446
        3        3        3        3        0        0        0        0        8        0      653      401      454      411      411      410      410      410      410
        3        3        3        3        0        0        0        0        8        0      654      308      309      343      343      454      454      454      454
        3        3        3        3        0        0        0        0        8        0      655      306      309      308      308      454      454      454      454
        3        3        3        3        0        0        0        0        8        0      656      306      308      411      411      454      454      454      454
        3        3        3        3        0        0        0        0        8        0      657      309      454      342      342      343      343      343      343
        3        3        3        3        0        0        0        0        8        0      658      309      342      454      454      310      310      310      310
        3        3        3        3        0        0        0        0        8        0      659      310      454      418      418      451      451      451      451
        3        3        3        3        0        0        0        0        8        0      660      418      454      446      446      451      451      451      451
        3        3        3        3        0        0        0        0        8        0      661      305      309      454      454      310      310      310      310
        3        3        3        3        0        0        0        0        8        0      662      358      423      453      453      378      378      378      378
! ... 329 like lines cut
! Material Id = {6C4F2C9F-937E-4F95-AFE9-C4F5945E4210}
/wb,elem,end               !  done creating elements
/com,*********** Send User Defined Coordinate System(s) ***********
csys,0
toffst,273.15,      ! Temperature offset from absolute zero
/com,*********** Set Reference Temperature ***********
tref,22.
/wb,mat,start              !  starting to send materials
/com,*********** Send Materials ***********

TB,PRONY,1,1,6,BULK
TBTEMP,869
TBDATA,1,0.0222,5.009e-05,0.0224,0.0009945,0.0286,0.002022
TBDATA,7,0.2137,0.01925,0.394,0.1199,0.3191,2.033

TB,PRONY,1,1,6,SHEAR
TBTEMP,595.85
TBDATA,1,0.05523,6.658e-05,0.08205,0.001197,0.1215,0.01514
TBDATA,7,0.2286,0.1672,0.286,0.7497,0.22662,3.292
MP,DENS,1,2.74e-09,	! tonne mm^-3
MP,EX,1,70000,	! tonne s^-2 mm^-1
MP,NUXY,1,0.22,
MP,UVID,1,97a6bb41-32eb-488c-bbc2-9600d081f55b

Temperature = 'TEMP' ! Temperature
MP,DENS,2,4.62e-09,	! tonne mm^-3
MP,ALPX,2,9.4e-06,	! C^-1
MP,C,2,522000000,	! mm^2 s^-2 C^-1
MP,KXX,2,21.9,	! tonne mm s^-3 C^-1
MP,RSVX,2,0.0017,	! ohm mm
MP,EX,2,96000,	! tonne s^-2 mm^-1
MP,NUXY,2,0.36,
MP,MURX,2,1,
MP,UVID,2,283b7a77-d900-47ec-82e2-79ef1753b86c
MP,UMID,2,c4cc4a57-3226-45fe-b3f8-5a83eb845bd6

Temperature = 'TEMP' ! Temperature
MP,DENS,3,4.62e-09,	! tonne mm^-3
MP,ALPX,3,9.4e-06,	! C^-1
MP,C,3,522000000,	! mm^2 s^-2 C^-1
MP,KXX,3,21.9,	! tonne mm s^-3 C^-1
MP,RSVX,3,0.0017,	! ohm mm
MP,EX,3,96000,	! tonne s^-2 mm^-1
MP,NUXY,3,0.36,
MP,MURX,3,1,
MP,UVID,3,283b7a77-d900-47ec-82e2-79ef1753b86c
MP,UMID,3,c4cc4a57-3226-45fe-b3f8-5a83eb845bd6

/wb,mat,end                !  done sending materials
!************************* Model Summary ********************
!Plate,	VISCO,	matid,	1
!Lower Die,	Titanium Alloy,	matid,	2
!Upper Die,	Titanium Alloy,	matid,	3
!************************* End Model Summary ********************
! get the diagonal of the bounding box. Needed later for other things
*get,_xmin,node,,mnloc,x
*get,_ymin,node,,mnloc,y
*get,_zmin,node,,mnloc,z
*get,_xmax,node,,mxloc,x
*get,_ymax,node,,mxloc,y
*get,_zmax,node,,mxloc,z
_ASMDIAG=(_xmax-_xmin)*(_xmax-_xmin)+(_ymax-_ymin)*(_ymax-_ymin)+(_zmax-_zmin)*(_zmax-_zmin)
_ASMDIAG=SQRT(_ASMDIAG)
/wb,contact,start          !  starting to send contact
/com,*********** Create Contact "Frictional - No Selection To No Selection" ***********
/com,            Real Constant Set For Above Contact Is 5 & 4 
*set,tid,5
*set,cid,4
r,tid
r,cid
et,tid,170
et,cid,174
eblock,10,,,69
(15i9)
     1847        5        5        5        0       30       31       93       93
     1848        5        5        5        0       29       30       93       93
     1849        5        5        5        0       71       94       72       72
     1850        5        5        5        0       72       94       75       75
     1851        5        5        5        0       75       94       76       76
     1852        5        5        5        0       70       94       71       71
     1853        5        5        5        0       79       95       80       80
     1854        5        5        5        0       78       95       79       79
     1855        5        5        5        0       74       85       86       86
     1856        5        5        5        0       26       27       91       91
     1857        5        5        5        0       33       34       90       90
     1858        5        5        5        0       20       89       36       36
     1859        5        5        5        0        2       21       68       68
     1860        5        5        5        0       72       75       73       73
     1861        5        5        5        0       92      100       94       94
     1862        5        5        5        0       96       98      102      102
     1863        5        5        5        0       91      101       95       95
     1864        5        5        5        0       91       95      100      100
     1865        5        5        5        0       67       73       75       75
     1866        5        5        5        0       91      100       92       92
! ... 50 like lines cut
eblock,10,,,69
(15i9)
     1916        4        4        4        0       30       31       93       93
     1917        4        4        4        0       29       30       93       93
     1918        4        4        4        0       71       94       72       72
     1919        4        4        4        0       72       94       75       75
     1920        4        4        4        0       75       94       76       76
     1921        4        4        4        0       70       94       71       71
     1922        4        4        4        0       79       95       80       80
     1923        4        4        4        0       78       95       79       79
     1924        4        4        4        0       74       85       86       86
     1925        4        4        4        0       26       27       91       91
     1926        4        4        4        0       33       34       90       90
     1927        4        4        4        0       20       89       36       36
     1928        4        4        4        0        2       21       68       68
     1929        4        4        4        0       72       75       73       73
     1930        4        4        4        0       92      100       94       94
     1931        4        4        4        0       96       98      102      102
     1932        4        4        4        0       91      101       95       95
     1933        4        4        4        0       91       95      100      100
     1934        4        4        4        0       67       73       75       75
     1935        4        4        4        0       91      100       92       92
! ... 50 like lines cut
eblock,10,,,148
(15i9)
     1985        4        5        4        0      298      301      313      313
     1986        4        5        4        0      300      307      308      308
     1987        4        5        4        0      299      301      298      298
     1988        4        5        4        0      301      302      313      313
     1989        4        5        4        0      302      303      312      312
     1990        4        5        4        0      303      304      311      311
     1991        4        5        4        0      304      305      310      310
     1992        4        5        4        0      305      306      309      309
     1993        4        5        4        0      306      300      308      308
     1994        4        5        4        0      308      309      306      306
     1995        4        5        4        0      309      310      305      305
     1996        4        5        4        0      310      311      304      304
     1997        4        5        4        0      311      312      303      303
     1998        4        5        4        0      312      313      302      302
     1999        4        5        4        0      334      336      351      351
     2000        4        5        4        0      336      335      338      338
     2001        4        5        4        0      337      345      343      343
     2002        4        5        4        0      345      344      346      346
     2003        4        5        4        0      338      339      351      351
     2004        4        5        4        0      339      340      350      350
! ... 129 like lines cut
eblock,10,,,148
(15i9)
     2133        5        4        5        0      298      301      313      313
     2134        5        4        5        0      300      307      308      308
     2135        5        4        5        0      299      301      298      298
     2136        5        4        5        0      301      302      313      313
     2137        5        4        5        0      302      303      312      312
     2138        5        4        5        0      303      304      311      311
     2139        5        4        5        0      304      305      310      310
     2140        5        4        5        0      305      306      309      309
     2141        5        4        5        0      306      300      308      308
     2142        5        4        5        0      308      309      306      306
     2143        5        4        5        0      309      310      305      305
     2144        5        4        5        0      310      311      304      304
     2145        5        4        5        0      311      312      303      303
     2146        5        4        5        0      312      313      302      302
     2147        5        4        5        0      334      336      351      351
     2148        5        4        5        0      336      335      338      338
     2149        5        4        5        0      337      345      343      343
     2150        5        4        5        0      345      344      346      346
     2151        5        4        5        0      338      339      351      351
     2152        5        4        5        0      339      340      350      350
! ... 129 like lines cut
keyo,cid,8,2               ! auto create asymmetric contact (from Program Controlled setting)
keyo,cid,10,0              ! adjust contact stiffness each NR iteration (from Program Controlled setting)
keyo,cid,12,0              ! standard contact
mp,mu,cid,0.2       ! unitless
keyo,cid,2,0               ! augmented Lagrange (from Program Controlled setting)
keyo,cid,4,0               ! on Gauss point (from Program Controlled setting)
keyo,cid,9,0               ! use real geometry with stepped effects
keyo,cid,7,0               ! No Prediction
rmod,tid,3,1.       ! FKN
rmod,tid,5,0.       ! ICONT
rmod,tid,6,0.       ! PINB
rmod,tid,10,0.      ! CNOF
rmod,tid,12,0.      ! FKT
rmod,tid,36,40      ! WB DSID
rmod,cid,3,1.       ! FKN
rmod,cid,5,0.       ! ICONT
rmod,cid,6,0.       ! PINB
rmod,cid,10,0.      ! CNOF
rmod,cid,12,0.      ! FKT
rmod,cid,36,40      ! WB DSID
/com,*********** Create Contact "Frictional - No Selection To No Selection" ***********
/com,            Real Constant Set For Above Contact Is 7 & 6 
*set,tid,7
*set,cid,6
r,tid
r,cid
et,tid,170
et,cid,174
eblock,10,,,108
(15i9)
     2281        7        7        7        0      107      129      124      124
     2282        7        7        7        0      108      110      134      134
     2283        7        7        7        0      113      120      130      130
     2284        7        7        7        0      122      126      125      125
     2285        7        7        7        0      106      115      118      118
     2286        7        7        7        0      107      115      129      129
     2287        7        7        7        0      109      114      126      126
     2288        7        7        7        0      108      118      115      115
     2289        7        7        7        0      107      124      113      113
     2290        7        7        7        0      106      128      115      115
     2291        7        7        7        0      114      125      126      126
     2292        7        7        7        0      115      128      129      129
     2293        7        7        7        0      106      127      128      128
     2294        7        7        7        0      106      114      127      127
     2295        7        7        7        0      106      125      114      114
     2296        7        7        7        0      113      124      120      120
     2297        7        7        7        0      112      123      121      121
     2298        7        7        7        0      106      118      125      125
     2299        7        7        7        0      105      109      126      126
     2300        7        7        7        0      111      118      119      119
! ... 89 like lines cut
eblock,10,,,108
(15i9)
     2389        6        6        6        0      107      129      124      124
     2390        6        6        6        0      108      110      134      134
     2391        6        6        6        0      113      120      130      130
     2392        6        6        6        0      122      126      125      125
     2393        6        6        6        0      106      115      118      118
     2394        6        6        6        0      107      115      129      129
     2395        6        6        6        0      109      114      126      126
     2396        6        6        6        0      108      118      115      115
     2397        6        6        6        0      107      124      113      113
     2398        6        6        6        0      106      128      115      115
     2399        6        6        6        0      114      125      126      126
     2400        6        6        6        0      115      128      129      129
     2401        6        6        6        0      106      127      128      128
     2402        6        6        6        0      106      114      127      127
     2403        6        6        6        0      106      125      114      114
     2404        6        6        6        0      113      124      120      120
     2405        6        6        6        0      112      123      121      121
     2406        6        6        6        0      106      118      125      125
     2407        6        6        6        0      105      109      126      126
     2408        6        6        6        0      111      118      119      119
! ... 89 like lines cut
eblock,10,,,90
(15i9)
     2497        6        7        6        0      186      151      150      150
     2498        6        7        6        0      186      150      187      187
     2499        6        7        6        0      151      185      152      152
     2500        6        7        6        0      136      153      183      183
     2501        6        7        6        0      136      183      181      181
     2502        6        7        6        0      183      153      184      184
     2503        6        7        6        0      187      150      149      149
     2504        6        7        6        0      152      185      184      184
     2505        6        7        6        0      148      188      149      149
     2506        6        7        6        0      188      148      182      182
     2507        6        7        6        0      149      188      187      187
     2508        6        7        6        0      182      148      146      146
     2509        6        7        6        0      184      153      152      152
     2510        6        7        6        0      185      151      186      186
     2511        6        7        6        0      136      138      153      153
     2512        6        7        6        0      138      137      140      140
     2513        6        7        6        0      139      147      145      145
     2514        6        7        6        0      147      146      148      148
     2515        6        7        6        0      140      141      153      153
     2516        6        7        6        0      141      142      152      152
! ... 71 like lines cut
eblock,10,,,90
(15i9)
     2587        7        6        7        0      186      151      150      150
     2588        7        6        7        0      186      150      187      187
     2589        7        6        7        0      151      185      152      152
     2590        7        6        7        0      136      153      183      183
     2591        7        6        7        0      136      183      181      181
     2592        7        6        7        0      183      153      184      184
     2593        7        6        7        0      187      150      149      149
     2594        7        6        7        0      152      185      184      184
     2595        7        6        7        0      148      188      149      149
     2596        7        6        7        0      188      148      182      182
     2597        7        6        7        0      149      188      187      187
     2598        7        6        7        0      182      148      146      146
     2599        7        6        7        0      184      153      152      152
     2600        7        6        7        0      185      151      186      186
     2601        7        6        7        0      136      138      153      153
     2602        7        6        7        0      138      137      140      140
     2603        7        6        7        0      139      147      145      145
     2604        7        6        7        0      147      146      148      148
     2605        7        6        7        0      140      141      153      153
     2606        7        6        7        0      141      142      152      152
! ... 71 like lines cut
keyo,cid,8,2               ! auto create asymmetric contact (from Program Controlled setting)
keyo,cid,10,0              ! adjust contact stiffness each NR iteration (from Program Controlled setting)
keyo,cid,12,0              ! standard contact
mp,mu,cid,0.2       ! unitless
keyo,cid,2,0               ! augmented Lagrange (from Program Controlled setting)
keyo,cid,4,0               ! on Gauss point (from Program Controlled setting)
keyo,cid,9,0               ! use real geometry with stepped effects
keyo,cid,7,0               ! No Prediction
rmod,tid,3,1.       ! FKN
rmod,tid,5,0.       ! ICONT
rmod,tid,6,0.       ! PINB
rmod,tid,10,0.      ! CNOF
rmod,tid,12,0.      ! FKT
rmod,tid,36,43      ! WB DSID
rmod,cid,3,1.       ! FKN
rmod,cid,5,0.       ! ICONT
rmod,cid,6,0.       ! PINB
rmod,cid,10,0.      ! CNOF
rmod,cid,12,0.      ! FKT
rmod,cid,36,43      ! WB DSID
/com,*********** Create Contact "Contact Region 4" ***********
/com,            Real Constant Set For Above Contact Is 9 & 8 
*set,tid,9
*set,cid,8
r,tid
r,cid
et,tid,170
et,cid,174
eblock,10,,,56
(15i9)
     2677        9        9        9        0      107      129      124      124
     2678        9        9        9        0      108      110      134      134
     2679        9        9        9        0      113      120      130      130
     2680        9        9        9        0      106      115      118      118
     2681        9        9        9        0      107      115      129      129
     2682        9        9        9        0      108      118      115      115
     2683        9        9        9        0      107      124      113      113
     2684        9        9        9        0      106      128      115      115
     2685        9        9        9        0      115      128      129      129
     2686        9        9        9        0      106      127      128      128
     2687        9        9        9        0      113      124      120      120
     2688        9        9        9        0      111      118      119      119
     2689        9        9        9        0      108      119      118      118
     2690        9        9        9        0      110      113      116      116
     2691        9        9        9        0      107      113      110      110
     2692        9        9        9        0      113      130      116      116
     2693        9        9        9        0      108      133      119      119
     2694        9        9        9        0      108      107      110      110
     2695        9        9        9        0      108      115      107      107
     2696        9        9        9        0      108      134      133      133
! ... 37 like lines cut
eblock,10,,,56
(15i9)
     2733        8        8        8        0      107      129      124      124
     2734        8        8        8        0      108      110      134      134
     2735        8        8        8        0      113      120      130      130
     2736        8        8        8        0      106      115      118      118
     2737        8        8        8        0      107      115      129      129
     2738        8        8        8        0      108      118      115      115
     2739        8        8        8        0      107      124      113      113
     2740        8        8        8        0      106      128      115      115
     2741        8        8        8        0      115      128      129      129
     2742        8        8        8        0      106      127      128      128
     2743        8        8        8        0      113      124      120      120
     2744        8        8        8        0      111      118      119      119
     2745        8        8        8        0      108      119      118      118
     2746        8        8        8        0      110      113      116      116
     2747        8        8        8        0      107      113      110      110
     2748        8        8        8        0      113      130      116      116
     2749        8        8        8        0      108      133      119      119
     2750        8        8        8        0      108      107      110      110
     2751        8        8        8        0      108      115      107      107
     2752        8        8        8        0      108      134      133      133
! ... 37 like lines cut
eblock,10,,,62
(15i9)
     2789        8        9        8        0      180      195      202      202
     2790        8        9        8        0      256      262      259      259
     2791        8        9        8        0      232      261      233      233
     2792        8        9        8        0      234      259      235      235
     2793        8        9        8        0      224      236      225      225
     2794        8        9        8        0      191      260      192      192
     2795        8        9        8        0      193      258      194      194
     2796        8        9        8        0      193      260      258      258
     2797        8        9        8        0      196      197      231      231
     2798        8        9        8        0      192      260      193      193
     2799        8        9        8        0      257      264      258      258
     2800        8        9        8        0      258      264      263      263
     2801        8        9        8        0      256      259      257      257
     2802        8        9        8        0      256      260      265      265
     2803        8        9        8        0      256      258      260      260
     2804        8        9        8        0      257      259      261      261
     2805        8        9        8        0      189      230      190      190
     2806        8        9        8        0      257      261      266      266
     2807        8        9        8        0      256      257      258      258
     2808        8        9        8        0      233      261      234      234
! ... 43 like lines cut
eblock,10,,,62
(15i9)
     2851        9        8        9        0      180      195      202      202
     2852        9        8        9        0      256      262      259      259
     2853        9        8        9        0      232      261      233      233
     2854        9        8        9        0      234      259      235      235
     2855        9        8        9        0      224      236      225      225
     2856        9        8        9        0      191      260      192      192
     2857        9        8        9        0      193      258      194      194
     2858        9        8        9        0      193      260      258      258
     2859        9        8        9        0      196      197      231      231
     2860        9        8        9        0      192      260      193      193
     2861        9        8        9        0      257      264      258      258
     2862        9        8        9        0      258      264      263      263
     2863        9        8        9        0      256      259      257      257
     2864        9        8        9        0      256      260      265      265
     2865        9        8        9        0      256      258      260      260
     2866        9        8        9        0      257      259      261      261
     2867        9        8        9        0      189      230      190      190
     2868        9        8        9        0      257      261      266      266
     2869        9        8        9        0      256      257      258      258
     2870        9        8        9        0      233      261      234      234
! ... 43 like lines cut
keyo,cid,8,2               ! auto create asymmetric contact (from Program Controlled setting)
keyo,cid,10,0              ! adjust contact stiffness each NR iteration (from Program Controlled setting)
keyo,cid,12,5              ! bonded always
keyo,cid,18,1              ! small sliding turned on by application
keyo,cid,2,0               ! augmented Lagrange (from Program Controlled setting)
keyo,cid,4,0               ! on Gauss point (from Program Controlled setting)
keyo,cid,9,1               ! ignore initial gaps/penetration
keyo,cid,7,0               ! No Prediction
rmod,tid,3,1.       ! FKN
rmod,tid,5,0.       ! ICONT
rmod,tid,6,0.       ! PINB
rmod,tid,10,0.      ! CNOF
rmod,tid,12,0.      ! FKT
rmod,tid,36,25254   ! WB DSID
rmod,cid,3,1.       ! FKN
rmod,cid,5,0.       ! ICONT
rmod,cid,6,0.       ! PINB
rmod,cid,10,0.      ! CNOF
rmod,cid,12,0.      ! FKT
rmod,cid,36,25254   ! WB DSID
nsel,all
esel,all
/wb,contact,end            !  done creating contacts
/golist
/wb,load,start             !  starting to send loads
/com,*********** Fixed Supports ***********
CMBLOCK,_FIXEDSU,NODE,       74
(8i10)
       136       137       138       139       146       147       154       155
       156       157       158       159       160       161       162       163
       164       171       172       173       174       175       176       177
       178       179       180       181       182       189       196       197
       198       199       200       201       202       203       204       205
       206       207       208       209       210       211       212       213
       214       215       216       217       218       219       220       221
       222       223       224       225       226       227       228       229
       230       237       238       239       246       247       248       249
       282       286
cmsel,s,_FIXEDSU
d,all,all
nsel,all
/com,******* Constant Zero Displacement X *******
CMBLOCK,_DISPZEROUX,NODE,       58
(8i10)
       299       300       301       302       303       304       305       306
       314       315       316       317       318       319       320       321
       322       323       324       325       326       327       328       329
       330       331       332       333       352       362       363       364
       383       393       394       395       396       397       398       399
       400       402       403       404       405       406       407       431
       432       433       434       435       436       437       438       439
       440       441
cmsel,s,_DISPZEROUX
d,all,ux,0
nsel,all
/com,******* Constant Zero Displacement Z *******
CMBLOCK,_DISPZEROUZ,NODE,       39
(8i10)
       299       300       301       302       303       304       305       306
       314       315       316       317       318       319       320       321
       322       323       324       325       326       327       328       329
       330       331       332       333       431       432       433       434
       435       436       437       438       439       440       441
cmsel,s,_DISPZEROUZ
d,all,uz,0
nsel,all
/com,*********** Create Displacement Tables and Functions ******

*DIM,_loadvari76yp,TABLE,5,1,1,TIME, , , 0
! Time values
*TAXIS,_loadvari76yp(1),1,0.,0.5,5.,10.,15.
! Load values
_loadvari76yp(1,1,1) = 0.
_loadvari76yp(2,1,1) = 0.
_loadvari76yp(3,1,1) = -25.
_loadvari76yp(4,1,1) = -25.
_loadvari76yp(5,1,1) = 0.



*DIM,_loadvari76yn,TABLE,5,1,1,TIME, , , 0
! Time values
*TAXIS,_loadvari76yn(1),1,0.,0.5,5.,10.,15.
! Load values
_loadvari76yn(1,1,1) = 0.
_loadvari76yn(2,1,1) = 0.
_loadvari76yn(3,1,1) = 25.
_loadvari76yn(4,1,1) = 25.
_loadvari76yn(5,1,1) = 0.


/gst,on,on
fini
*get,_numnode,node,0,count
*get,_numelem,elem,0,count
*get, _MAXELEMNUM, elem, 0, NUM, MAX
*get, _MAXNODENUM, node, 0, NUM, MAX
*get, _MAXELEMTYPE, etyp, 0, NUM, MAX
*get, _MAXREALCONST, rcon, 0, NUM, MAX
/go
/wb,load,end               !  done creating loads
/com,--- Number of total nodes = %_numnode%
/com,--- Number of contact elements = 1066
/com,--- Number of spring elements = 0
/com,--- Number of bearing elements = 0
/com,--- Number of solid elements = 990
/com,--- Number of condensed parts = 0
/com,--- Number of total elements = %_numelem%
*get,_wallbsol,active,,time,wall
/com,****************************************************************************
/com,*************************    SOLUTION       ********************************
/com,****************************************************************************
/solu
antype,4                   ! transient analysis type for quasi static solution
nlgeom,on                  ! Turn on Large Deformation Effects
_thickRatio=  0     ! Ratio of thick parts in the model
eqsl,sparse,,,,,1
nropt,full                 ! Use full Newton-Raphson
cntr,print,1               ! print out contact info and also make no initial contact an error
tintp,quas				   ! Backward Euler Time Integration for quasi static solution 
trnopt,,,,,,,,,yes        ! Enable numerical damping for quasi static solution
nldiag,cont,iter           ! print out contact info each equilibrium iteration
rescontrol,define,last,last,,dele	   ! Program Controlled
/com,****************************************************
/com,******************* SOLVE FOR LS 1 OF 3 ****************
/com,*** Set Displacements ***
CMBLOCK,_CM76UY_YP,NODE,       39
(8i10)
       299       300       301       302       303       304       305       306
       314       315       316       317       318       319       320       321
       322       323       324       325       326       327       328       329
       330       331       332       333       431       432       433       434
       435       436       437       438       439       440       441
cmsel,s,_CM76UY_YP
d,all,uy,%_loadvari76yp%
nsel,all

/com,*** Component For All Non-Zero UY Displacements ***
cmsel,s,_CM76uy_yp
cm,_DISPNONZEROUY,NODE
nsel,all

/nopr
/gopr
autots,off                 ! User turned off automatic time stepping
deltim,3.75e-002,3.75e-002,3.75e-002
time,5.
outres,erase
outres,all,none
outres,nsol,all,
outres,rsol,all
outres,eangl,all
outres,etmp,all
outres,veng,all
outres,strs,all,
outres,epel,all,
outres,eppl,all,
outres,cont,all,
! *********** WB SOLVE COMMAND ***********
! check interactive state
*get,ANSINTER_,active,,int
*if,ANSINTER_,ne,0,then
/eof
*endif
solve
/com *************** Write FE CONNECTORS ********* 
CEWRITE,file,ce,,INTE
/com,****************************************************
/com,*************** FINISHED SOLVE FOR LS 1 *************
/com,****************************************************
/com,******************* SOLVE FOR LS 2 OF 3 ****************
/com,*** Set Displacements ***
/nopr
/gopr
autots,off                 ! User turned off automatic time stepping
deltim,3.75e-002,3.75e-002,3.75e-002
time,10.
outres,erase
outres,all,none
outres,nsol,all,
outres,rsol,all
outres,eangl,all
outres,etmp,all
outres,veng,all
outres,strs,all,
outres,epel,all,
outres,eppl,all,
outres,cont,all,
solve
/com,****************************************************
/com,*************** FINISHED SOLVE FOR LS 2 *************
/com,****************************************************
/com,******************* SOLVE FOR LS 3 OF 3 ****************
/com,*** Set Displacements ***
/nopr
/gopr
autots,off                 ! User turned off automatic time stepping
deltim,3.75e-002,3.75e-002,3.75e-002
time,15.
outres,erase
outres,all,none
outres,nsol,all,
outres,rsol,all
outres,eangl,all
outres,etmp,all
outres,veng,all
outres,strs,all,
outres,epel,all,
outres,eppl,all,
outres,cont,all,
solve
/com,****************************************************
/com,*************** FINISHED SOLVE FOR LS 3 *************
*get,_wallasol,active,,time,wall
/nopr
*get,_numnode,node,0,count
*get,_numelem,elem,0,count
*get, _MAXELEMNUM, elem, 0, NUM, MAX
*get, _MAXNODENUM, node, 0, NUM, MAX,,,INTERNAL
*get, _MAXELEMTYPE, etyp, 0, NUM, MAX
*get, _MAXREALCONST, rcon, 0, NUM, MAX
*get,_NSOLTHREADS,active,0,ntfs
*get,_NSOLPROCESSES,active,0,npfs
/gopr
/post1
xmlo,ENCODING,ISO-8859-1
xmlo,parm
/xml,parm,xml
fini
/gopr
*get,_walldone,active,,time,wall
_preptime=(_wallbsol-_wallstrt)*3600
_solvtime=(_wallasol-_wallbsol)*3600
_posttime=(_walldone-_wallasol)*3600
_totaltim=(_walldone-_wallstrt)*3600
*get,_dlbratio,active,0,solu,dlbr
*get,_combtime,active,0,solu,comb
*get,_ssmode,active,0,solu,ssmm
*get,_ndofs,active,0,solu,ndof
/com,--- Total number of nodes = %_numnode%
/com,--- Total number of elements = %_numelem%
/com,--- Element load balance ratio = %_dlbratio%
/com,--- Time to combine distributed files = %_combtime%
/com,--- Sparse memory mode = %_ssmode%
/com,--- Number of DOF = %_ndofs%
/wb,file,end               ! done with WB generated input
