/batch
/config,noeldb,1     ! force off writing results to database
*get,_wallstrt,active,,time,wall
! ANSYS input file written by Workbench version 2024 R2
! File used for geometry attach: D:\OJT\testing_files\dp0\Geom-2\DM\Geom-2.scdoc
/title,testing--Static Structural (C5)
! ****** Begin Custom Load Command Snippet ******
/COM, ACT Extensions:
/COM,     LSDYNA, 2024.2
/COM,     5f463412-bd3e-484b-87e7-cbc0a665e474, wbex
/COM,/COM,     ANSYSMotion, 2024.2
/COM,     20180725-3f81-49eb-9f31-41364844c769, wbex
/COM,
! ****** End   Custom Load Command Snippet ******
*DIM,_wb_ProjectScratch_dir,string,248
_wb_ProjectScratch_dir(1) = 'D:\OJT\testing_files\dp0\SYS-4\MECH\'
*DIM,_wb_SolverFiles_dir,string,248
_wb_SolverFiles_dir(1) = 'D:\OJT\testing_files\dp0\SYS-4\MECH\'
*DIM,_wb_userfiles_dir,string,248
_wb_userfiles_dir(1) = 'D:\OJT\testing_files\user_files\'
/com,--- Data in consistent NMM units. See Solving Units in the help system for more information.
/units,MPA
/nopr
/wb,file,start              !  signify a WB generated input file
/prep7
! Turn off shape checking because checks already performed inside WB mesher.
! See help system for more information.
SHPP,OFF,,NOWARN
/nolist
etcon,set             ! allow ANSYS to choose best KEYOP's for 180x elements, resets any applicable keyopt to MAPDL defaults
/com,*********** Nodes for the whole assembly ***********
nblock,3,,490
(1i9,3e20.9e3)
        1     0.000000000E+00     0.000000000E+00    -1.250000000E+02
        2     0.000000000E+00     1.000000000E+01    -1.250000000E+02
        3    -3.000000000E+02     0.000000000E+00    -1.250000000E+02
        4    -2.823529412E+02     0.000000000E+00    -1.250000000E+02
        5    -2.647058824E+02     0.000000000E+00    -1.250000000E+02
        6    -2.470588235E+02     0.000000000E+00    -1.250000000E+02
        7    -2.294117647E+02     0.000000000E+00    -1.250000000E+02
        8    -2.117647059E+02     0.000000000E+00    -1.250000000E+02
        9    -1.941176471E+02     0.000000000E+00    -1.250000000E+02
       10    -1.764705882E+02     0.000000000E+00    -1.250000000E+02
       11    -1.588235294E+02     0.000000000E+00    -1.250000000E+02
       12    -1.411764706E+02     0.000000000E+00    -1.250000000E+02
       13    -1.235294118E+02     0.000000000E+00    -1.250000000E+02
       14    -1.058823529E+02     0.000000000E+00    -1.250000000E+02
       15    -8.823529412E+01     0.000000000E+00    -1.250000000E+02
       16    -7.058823529E+01     0.000000000E+00    -1.250000000E+02
       17    -5.294117647E+01     0.000000000E+00    -1.250000000E+02
       18    -3.529411765E+01     0.000000000E+00    -1.250000000E+02
       19    -1.764705882E+01     0.000000000E+00    -1.250000000E+02
       20    -3.000000000E+02     1.000000000E+01    -1.250000000E+02
! ... 427 like lines cut
/wb,elem,start            !  set before creation of elements
/com,*********** Elements for Body 1 'Plate' ***********
et,1,185
eblock,19,solid,,265
(19i9)
        1        1        1        1        0        0        0        0        8        0        1       96      112      105      105      123      123      123      123
        1        1        1        1        0        0        0        0        8        0        2       96      123       99       99      112      112      112      112
        1        1        1        1        0        0        0        0        8        0        3       96      132      123      123      105      105      105      105
        1        1        1        1        0        0        0        0        8        0        4       90      105       96       96      112      112      112      112
        1        1        1        1        0        0        0        0        8        0        5       90      112       96       96       99       99       99       99
        1        1        1        1        0        0        0        0        8        0        6       99      121      112      112      123      123      123      123
        1        1        1        1        0        0        0        0        8        0        7       84       99       96       96      123      123      123      123
        1        1        1        1        0        0        0        0        8        0        8       96      132      105      105      122      122      122      122
        1        1        1        1        0        0        0        0        8        0        9       83       96      132      132      123      123      123      123
        1        1        1        1        0        0        0        0        8        0       10       90      109      105      105      112      112      112      112
        1        1        1        1        0        0        0        0        8        0       11       90      112       99       99      117      117      117      117
        1        1        1        1        0        0        0        0        8        0       12       84      121       99       99      123      123      123      123
        1        1        1        1        0        0        0        0        8        0       13       99      131      112      112      121      121      121      121
        1        1        1        1        0        0        0        0        8        0       14       83       96      123      123       84       84       84       84
        1        1        1        1        0        0        0        0        8        0       15       96      105      126      126      122      122      122      122
        1        1        1        1        0        0        0        0        8        0       16       96       98      132      132      122      122      122      122
        1        1        1        1        0        0        0        0        8        0       17       56      123       83       83      132      132      132      132
        1        1        1        1        0        0        0        0        8        0       18       82       96      132      132       83       83       83       83
        1        1        1        1        0        0        0        0        8        0       19       90      112      117      117      109      109      109      109
        1        1        1        1        0        0        0        0        8        0       20       90      109      126      126      105      105      105      105
! ... 246 like lines cut
! Material Id = {74FCC8DB-7E2C-4D34-B0BF-59E91014FE43}
/com,*********** Elements for Body 2 'Lower Die' ***********
et,2,185
eblock,19,solid,,335
(19i9)
        2        2        2        2        0        0        0        0        8        0      266      136      216      153      153      138      138      138      138
        2        2        2        2        0        0        0        0        8        0      267      136      153      216      216      217      217      217      217
        2        2        2        2        0        0        0        0        8        0      268      151      272      264      264      152      152      152      152
        2        2        2        2        0        0        0        0        8        0      269      142      264      151      151      143      143      143      143
        2        2        2        2        0        0        0        0        8        0      270      163      186      189      189      187      187      187      187
        2        2        2        2        0        0        0        0        8        0      271      163      189      177      177      187      187      187      187
        2        2        2        2        0        0        0        0        8        0      272      162      187      163      163      177      177      177      177
        2        2        2        2        0        0        0        0        8        0      273      163      189      273      273      177      177      177      177
        2        2        2        2        0        0        0        0        8        0      274      164      279      262      262      186      186      186      186
        2        2        2        2        0        0        0        0        8        0      275      177      190      189      189      273      273      273      273
        2        2        2        2        0        0        0        0        8        0      276      189      262      273      273      190      190      190      190
        2        2        2        2        0        0        0        0        8        0      277      164      262      269      269      273      273      273      273
        2        2        2        2        0        0        0        0        8        0      278      176      190      177      177      273      273      273      273
        2        2        2        2        0        0        0        0        8        0      279      190      191      262      262      273      273      273      273
        2        2        2        2        0        0        0        0        8        0      280      262      271      269      269      273      273      273      273
        2        2        2        2        0        0        0        0        8        0      281      176      190      273      273      191      191      191      191
        2        2        2        2        0        0        0        0        8        0      282      165      279      166      166      269      269      269      269
        2        2        2        2        0        0        0        0        8        0      283      191      262      273      273      192      192      192      192
        2        2        2        2        0        0        0        0        8        0      284      262      271      266      266      269      269      269      269
        2        2        2        2        0        0        0        0        8        0      285      175      273      191      191      176      176      176      176
! ... 316 like lines cut
! Material Id = {A3093036-FF09-4E71-B329-10478565D830}
/com,*********** Elements for Body 3 'Upper Die' ***********
et,3,185
eblock,19,solid,,349
(19i9)
        3        3        3        3        0        0        0        0        8        0      601      318      352      351      351      446      446      446      446
        3        3        3        3        0        0        0        0        8        0      602      351      371      446      446      352      352      352      352
        3        3        3        3        0        0        0        0        8        0      603      318      351      319      319      446      446      446      446
        3        3        3        3        0        0        0        0        8        0      604      317      352      318      318      446      446      446      446
        3        3        3        3        0        0        0        0        8        0      605      317      330      352      352      446      446      446      446
        3        3        3        3        0        0        0        0        8        0      606      330      371      352      352      446      446      446      446
        3        3        3        3        0        0        0        0        8        0      607      319      426      446      446      445      445      445      445
        3        3        3        3        0        0        0        0        8        0      608      318      446      319      319      426      426      426      426
        3        3        3        3        0        0        0        0        8        0      609      317      446      318      318      426      426      426      426
        3        3        3        3        0        0        0        0        8        0      610      317      330      446      446      426      426      426      426
        3        3        3        3        0        0        0        0        8        0      611      328      433      446      446      421      421      421      421
        3        3        3        3        0        0        0        0        8        0      612      328      446      329      329      421      421      421      421
        3        3        3        3        0        0        0        0        8        0      613      330      371      446      446      370      370      370      370
        3        3        3        3        0        0        0        0        8        0      614      371      446      433      433      445      445      445      445
        3        3        3        3        0        0        0        0        8        0      615      370      433      371      371      446      446      446      446
        3        3        3        3        0        0        0        0        8        0      616      421      433      446      446      445      445      445      445
        3        3        3        3        0        0        0        0        8        0      617      421      446      426      426      445      445      445      445
        3        3        3        3        0        0        0        0        8        0      618      328      446      433      433      369      369      369      369
        3        3        3        3        0        0        0        0        8        0      619      328      329      446      446      369      369      369      369
        3        3        3        3        0        0        0        0        8        0      620      329      446      426      426      421      421      421      421
! ... 330 like lines cut
! Material Id = {6C4F2C9F-937E-4F95-AFE9-C4F5945E4210}
/wb,elem,end               !  done creating elements
/com,*********** Send User Defined Coordinate System(s) ***********
csys,0
toffst,273.15,      ! Temperature offset from absolute zero
/com,*********** Set Reference Temperature ***********
tref,22.
/wb,mat,start              !  starting to send materials
/com,*********** Send Materials ***********

TB,PRONY,1,1,6,BULK
TBTEMP,869
TBDATA,1,0.0222,5.009e-05,0.0224,0.0009945,0.0286,0.002022
TBDATA,7,0.2137,0.01925,0.394,0.1199,0.3191,2.033

TB,PRONY,1,1,6,SHEAR
TBTEMP,595.85
TBDATA,1,0.05523,6.658e-05,0.08205,0.001197,0.1215,0.01514
TBDATA,7,0.2286,0.1672,0.286,0.7497,0.22662,3.292
MP,DENS,1,2.74e-09,	! tonne mm^-3
MP,EX,1,70000,	! tonne s^-2 mm^-1
MP,NUXY,1,0.22,
MP,UVID,1,97a6bb41-32eb-488c-bbc2-9600d081f55b

Temperature = 'TEMP' ! Temperature
MP,DENS,2,4.62e-09,	! tonne mm^-3
MP,ALPX,2,9.4e-06,	! C^-1
MP,C,2,522000000,	! mm^2 s^-2 C^-1
MP,KXX,2,21.9,	! tonne mm s^-3 C^-1
MP,RSVX,2,0.0017,	! ohm mm
MP,EX,2,960000000000000,	! tonne s^-2 mm^-1
MP,NUXY,2,0.36,
MP,MURX,2,1,
MP,UVID,2,4267f603-c4b1-4a72-a44e-f31f2e73019a
MP,UMID,2,ac00e499-a019-415c-a3e1-67bd2d5c2f8c

Temperature = 'TEMP' ! Temperature
MP,DENS,3,4.62e-09,	! tonne mm^-3
MP,ALPX,3,9.4e-06,	! C^-1
MP,C,3,522000000,	! mm^2 s^-2 C^-1
MP,KXX,3,21.9,	! tonne mm s^-3 C^-1
MP,RSVX,3,0.0017,	! ohm mm
MP,EX,3,96000,	! tonne s^-2 mm^-1
MP,NUXY,3,0.36,
MP,MURX,3,1,
MP,UVID,3,283b7a77-d900-47ec-82e2-79ef1753b86c
MP,UMID,3,c4cc4a57-3226-45fe-b3f8-5a83eb845bd6

/wb,mat,end                !  done sending materials
!************************* Model Summary ********************
!Plate,	VISCO,	matid,	1
!Lower Die,	Titanium Alloy_Custom,	matid,	2
!Upper Die,	Titanium Alloy,	matid,	3
!************************* End Model Summary ********************
! get the diagonal of the bounding box. Needed later for other things
*get,_xmin,node,,mnloc,x
*get,_ymin,node,,mnloc,y
*get,_zmin,node,,mnloc,z
*get,_xmax,node,,mxloc,x
*get,_ymax,node,,mxloc,y
*get,_zmax,node,,mxloc,z
_ASMDIAG=(_xmax-_xmin)*(_xmax-_xmin)+(_ymax-_ymin)*(_ymax-_ymin)+(_zmax-_zmin)*(_zmax-_zmin)
_ASMDIAG=SQRT(_ASMDIAG)
/wb,contact,start          !  starting to send contact
/com,*********** Create Contact "Frictional - No Selection To No Selection" ***********
/com,            Real Constant Set For Above Contact Is 5 & 4 
*set,tid,5
*set,cid,4
r,tid
r,cid
et,tid,170
et,cid,174
eblock,10,,,69
(15i9)
     1800        5        5        5        0       30       31       93       93
     1801        5        5        5        0       29       30       93       93
     1802        5        5        5        0       71       94       72       72
     1803        5        5        5        0       72       94       75       75
     1804        5        5        5        0       75       94       76       76
     1805        5        5        5        0       70       94       71       71
     1806        5        5        5        0       79       95       80       80
     1807        5        5        5        0       78       95       79       79
     1808        5        5        5        0       74       85       86       86
     1809        5        5        5        0       26       27       91       91
     1810        5        5        5        0       33       34       90       90
     1811        5        5        5        0       20       89       36       36
     1812        5        5        5        0        2       21       68       68
     1813        5        5        5        0       72       75       73       73
     1814        5        5        5        0       92      100       94       94
     1815        5        5        5        0       96       98      102      102
     1816        5        5        5        0       91      101       95       95
     1817        5        5        5        0       91       95      100      100
     1818        5        5        5        0       67       73       75       75
     1819        5        5        5        0       91      100       92       92
! ... 50 like lines cut
eblock,10,,,69
(15i9)
     1869        4        4        4        0       30       31       93       93
     1870        4        4        4        0       29       30       93       93
     1871        4        4        4        0       71       94       72       72
     1872        4        4        4        0       72       94       75       75
     1873        4        4        4        0       75       94       76       76
     1874        4        4        4        0       70       94       71       71
     1875        4        4        4        0       79       95       80       80
     1876        4        4        4        0       78       95       79       79
     1877        4        4        4        0       74       85       86       86
     1878        4        4        4        0       26       27       91       91
     1879        4        4        4        0       33       34       90       90
     1880        4        4        4        0       20       89       36       36
     1881        4        4        4        0        2       21       68       68
     1882        4        4        4        0       72       75       73       73
     1883        4        4        4        0       92      100       94       94
     1884        4        4        4        0       96       98      102      102
     1885        4        4        4        0       91      101       95       95
     1886        4        4        4        0       91       95      100      100
     1887        4        4        4        0       67       73       75       75
     1888        4        4        4        0       91      100       92       92
! ... 50 like lines cut
eblock,10,,,146
(15i9)
     1938        4        5        4        0      332      387      334      334
     1939        4        5        4        0      403      406      414      414
     1940        4        5        4        0      339      406      340      340
     1941        4        5        4        0      405      413      411      411
     1942        4        5        4        0      338      406      339      339
     1943        4        5        4        0      403      414      412      412
     1944        4        5        4        0      393      406      394      394
     1945        4        5        4        0      340      406      393      393
     1946        4        5        4        0      333      340      393      393
     1947        4        5        4        0      394      406      395      395
     1948        4        5        4        0      403      412      407      407
     1949        4        5        4        0      405      411      406      406
     1950        4        5        4        0      405      408      413      413
     1951        4        5        4        0      404      410      409      409
     1952        4        5        4        0      404      407      410      410
     1953        4        5        4        0      403      405      406      406
     1954        4        5        4        0      403      404      405      405
     1955        4        5        4        0      404      408      405      405
     1956        4        5        4        0      388      389      407      407
     1957        4        5        4        0      373      374      392      392
! ... 127 like lines cut
eblock,10,,,146
(15i9)
     2084        5        4        5        0      332      387      334      334
     2085        5        4        5        0      403      406      414      414
     2086        5        4        5        0      339      406      340      340
     2087        5        4        5        0      405      413      411      411
     2088        5        4        5        0      338      406      339      339
     2089        5        4        5        0      403      414      412      412
     2090        5        4        5        0      393      406      394      394
     2091        5        4        5        0      340      406      393      393
     2092        5        4        5        0      333      340      393      393
     2093        5        4        5        0      394      406      395      395
     2094        5        4        5        0      403      412      407      407
     2095        5        4        5        0      405      411      406      406
     2096        5        4        5        0      405      408      413      413
     2097        5        4        5        0      404      410      409      409
     2098        5        4        5        0      404      407      410      410
     2099        5        4        5        0      403      405      406      406
     2100        5        4        5        0      403      404      405      405
     2101        5        4        5        0      404      408      405      405
     2102        5        4        5        0      388      389      407      407
     2103        5        4        5        0      373      374      392      392
! ... 127 like lines cut
keyo,cid,8,2               ! auto create asymmetric contact (from Program Controlled setting)
keyo,cid,10,0              ! adjust contact stiffness each NR iteration (from Program Controlled setting)
keyo,cid,12,0              ! standard contact
mp,mu,cid,0.2       ! unitless
keyo,cid,2,0               ! augmented Lagrange (from Program Controlled setting)
keyo,cid,4,0               ! on Gauss point (from Program Controlled setting)
keyo,cid,9,0               ! use real geometry with stepped effects
keyo,cid,7,0               ! No Prediction
rmod,tid,3,1.       ! FKN
rmod,tid,5,0.       ! ICONT
rmod,tid,6,0.       ! PINB
rmod,tid,10,0.      ! CNOF
rmod,tid,12,0.      ! FKT
rmod,tid,36,40      ! WB DSID
rmod,cid,3,1.       ! FKN
rmod,cid,5,0.       ! ICONT
rmod,cid,6,0.       ! PINB
rmod,cid,10,0.      ! CNOF
rmod,cid,12,0.      ! FKT
rmod,cid,36,40      ! WB DSID
/com,*********** Create Contact "Frictional - No Selection To No Selection" ***********
/com,            Real Constant Set For Above Contact Is 7 & 6 
*set,tid,7
*set,cid,6
r,tid
r,cid
et,tid,170
et,cid,174
eblock,10,,,108
(15i9)
     2230        7        7        7        0      107      129      124      124
     2231        7        7        7        0      108      110      134      134
     2232        7        7        7        0      113      120      130      130
     2233        7        7        7        0      122      126      125      125
     2234        7        7        7        0      106      115      118      118
     2235        7        7        7        0      107      115      129      129
     2236        7        7        7        0      109      114      126      126
     2237        7        7        7        0      108      118      115      115
     2238        7        7        7        0      107      124      113      113
     2239        7        7        7        0      106      128      115      115
     2240        7        7        7        0      114      125      126      126
     2241        7        7        7        0      115      128      129      129
     2242        7        7        7        0      106      127      128      128
     2243        7        7        7        0      106      114      127      127
     2244        7        7        7        0      106      125      114      114
     2245        7        7        7        0      113      124      120      120
     2246        7        7        7        0      112      123      121      121
     2247        7        7        7        0      106      118      125      125
     2248        7        7        7        0      105      109      126      126
     2249        7        7        7        0      111      118      119      119
! ... 89 like lines cut
eblock,10,,,108
(15i9)
     2338        6        6        6        0      107      129      124      124
     2339        6        6        6        0      108      110      134      134
     2340        6        6        6        0      113      120      130      130
     2341        6        6        6        0      122      126      125      125
     2342        6        6        6        0      106      115      118      118
     2343        6        6        6        0      107      115      129      129
     2344        6        6        6        0      109      114      126      126
     2345        6        6        6        0      108      118      115      115
     2346        6        6        6        0      107      124      113      113
     2347        6        6        6        0      106      128      115      115
     2348        6        6        6        0      114      125      126      126
     2349        6        6        6        0      115      128      129      129
     2350        6        6        6        0      106      127      128      128
     2351        6        6        6        0      106      114      127      127
     2352        6        6        6        0      106      125      114      114
     2353        6        6        6        0      113      124      120      120
     2354        6        6        6        0      112      123      121      121
     2355        6        6        6        0      106      118      125      125
     2356        6        6        6        0      105      109      126      126
     2357        6        6        6        0      111      118      119      119
! ... 89 like lines cut
eblock,10,,,80
(15i9)
     2446        6        7        6        0      136      138      153      153
     2447        6        7        6        0      138      137      140      140
     2448        6        7        6        0      139      147      145      145
     2449        6        7        6        0      147      146      148      148
     2450        6        7        6        0      140      141      153      153
     2451        6        7        6        0      141      142      152      152
     2452        6        7        6        0      142      143      151      151
     2453        6        7        6        0      143      144      150      150
     2454        6        7        6        0      144      145      149      149
     2455        6        7        6        0      148      149      145      145
     2456        6        7        6        0      149      150      144      144
     2457        6        7        6        0      150      151      143      143
     2458        6        7        6        0      151      152      142      142
     2459        6        7        6        0      152      153      141      141
     2460        6        7        6        0      153      138      140      140
     2461        6        7        6        0      145      147      148      148
     2462        6        7        6        0      158      142      157      157
     2463        6        7        6        0      156      157      140      140
     2464        6        7        6        0      143      159      144      144
     2465        6        7        6        0      160      161      144      144
! ... 61 like lines cut
eblock,10,,,80
(15i9)
     2526        7        6        7        0      136      138      153      153
     2527        7        6        7        0      138      137      140      140
     2528        7        6        7        0      139      147      145      145
     2529        7        6        7        0      147      146      148      148
     2530        7        6        7        0      140      141      153      153
     2531        7        6        7        0      141      142      152      152
     2532        7        6        7        0      142      143      151      151
     2533        7        6        7        0      143      144      150      150
     2534        7        6        7        0      144      145      149      149
     2535        7        6        7        0      148      149      145      145
     2536        7        6        7        0      149      150      144      144
     2537        7        6        7        0      150      151      143      143
     2538        7        6        7        0      151      152      142      142
     2539        7        6        7        0      152      153      141      141
     2540        7        6        7        0      153      138      140      140
     2541        7        6        7        0      145      147      148      148
     2542        7        6        7        0      158      142      157      157
     2543        7        6        7        0      156      157      140      140
     2544        7        6        7        0      143      159      144      144
     2545        7        6        7        0      160      161      144      144
! ... 61 like lines cut
keyo,cid,8,2               ! auto create asymmetric contact (from Program Controlled setting)
keyo,cid,10,0              ! adjust contact stiffness each NR iteration (from Program Controlled setting)
keyo,cid,12,0              ! standard contact
mp,mu,cid,0.2       ! unitless
keyo,cid,2,0               ! augmented Lagrange (from Program Controlled setting)
keyo,cid,4,0               ! on Gauss point (from Program Controlled setting)
keyo,cid,9,0               ! use real geometry with stepped effects
keyo,cid,7,0               ! No Prediction
rmod,tid,3,1.       ! FKN
rmod,tid,5,0.       ! ICONT
rmod,tid,6,0.       ! PINB
rmod,tid,10,0.      ! CNOF
rmod,tid,12,0.      ! FKT
rmod,tid,36,43      ! WB DSID
rmod,cid,3,1.       ! FKN
rmod,cid,5,0.       ! ICONT
rmod,cid,6,0.       ! PINB
rmod,cid,10,0.      ! CNOF
rmod,cid,12,0.      ! FKT
rmod,cid,36,43      ! WB DSID
/com,*********** Create Contact "Contact Region 5" ***********
/com,            Real Constant Set For Above Contact Is 9 & 8 
*set,tid,9
*set,cid,8
r,tid
r,cid
et,tid,170
et,cid,174
eblock,10,,,60
(15i9)
     2606        9        9        9        0      107      129      124      124
     2607        9        9        9        0      108      110      134      134
     2608        9        9        9        0      113      120      130      130
     2609        9        9        9        0      106      115      118      118
     2610        9        9        9        0      107      115      129      129
     2611        9        9        9        0      108      118      115      115
     2612        9        9        9        0      107      124      113      113
     2613        9        9        9        0      106      128      115      115
     2614        9        9        9        0      115      128      129      129
     2615        9        9        9        0      106      127      128      128
     2616        9        9        9        0      106      114      127      127
     2617        9        9        9        0      106      125      114      114
     2618        9        9        9        0      113      124      120      120
     2619        9        9        9        0      106      118      125      125
     2620        9        9        9        0      111      118      119      119
     2621        9        9        9        0      108      119      118      118
     2622        9        9        9        0      110      113      116      116
     2623        9        9        9        0      107      113      110      110
     2624        9        9        9        0      113      130      116      116
     2625        9        9        9        0      111      125      118      118
! ... 41 like lines cut
eblock,10,,,60
(15i9)
     2666        8        8        8        0      107      129      124      124
     2667        8        8        8        0      108      110      134      134
     2668        8        8        8        0      113      120      130      130
     2669        8        8        8        0      106      115      118      118
     2670        8        8        8        0      107      115      129      129
     2671        8        8        8        0      108      118      115      115
     2672        8        8        8        0      107      124      113      113
     2673        8        8        8        0      106      128      115      115
     2674        8        8        8        0      115      128      129      129
     2675        8        8        8        0      106      127      128      128
     2676        8        8        8        0      106      114      127      127
     2677        8        8        8        0      106      125      114      114
     2678        8        8        8        0      113      124      120      120
     2679        8        8        8        0      106      118      125      125
     2680        8        8        8        0      111      118      119      119
     2681        8        8        8        0      108      119      118      118
     2682        8        8        8        0      110      113      116      116
     2683        8        8        8        0      107      113      110      110
     2684        8        8        8        0      113      130      116      116
     2685        8        8        8        0      111      125      118      118
! ... 41 like lines cut
eblock,10,,,66
(15i9)
     2726        8        9        8        0      196      161      247      247
     2727        8        9        8        0      154      228      156      156
     2728        8        9        8        0      156      228      242      242
     2729        8        9        8        0      157      242      243      243
     2730        8        9        8        0      158      243      244      244
     2731        8        9        8        0      159      244      245      245
     2732        8        9        8        0      160      245      246      246
     2733        8        9        8        0      161      246      247      247
     2734        8        9        8        0      156      242      157      157
     2735        8        9        8        0      157      243      158      158
     2736        8        9        8        0      158      244      159      159
     2737        8        9        8        0      159      245      160      160
     2738        8        9        8        0      160      246      161      161
     2739        8        9        8        0      155      161      196      196
     2740        8        9        8        0      196      247      204      204
     2741        8        9        8        0      197      198      236      236
     2742        8        9        8        0      250      256      255      255
     2743        8        9        8        0      199      200      252      252
     2744        8        9        8        0      251      254      259      259
     2745        8        9        8        0      226      241      229      229
! ... 47 like lines cut
eblock,10,,,66
(15i9)
     2792        9        8        9        0      196      161      247      247
     2793        9        8        9        0      154      228      156      156
     2794        9        8        9        0      156      228      242      242
     2795        9        8        9        0      157      242      243      243
     2796        9        8        9        0      158      243      244      244
     2797        9        8        9        0      159      244      245      245
     2798        9        8        9        0      160      245      246      246
     2799        9        8        9        0      161      246      247      247
     2800        9        8        9        0      156      242      157      157
     2801        9        8        9        0      157      243      158      158
     2802        9        8        9        0      158      244      159      159
     2803        9        8        9        0      159      245      160      160
     2804        9        8        9        0      160      246      161      161
     2805        9        8        9        0      155      161      196      196
     2806        9        8        9        0      196      247      204      204
     2807        9        8        9        0      197      198      236      236
     2808        9        8        9        0      250      256      255      255
     2809        9        8        9        0      199      200      252      252
     2810        9        8        9        0      251      254      259      259
     2811        9        8        9        0      226      241      229      229
! ... 47 like lines cut
keyo,cid,8,2               ! auto create asymmetric contact (from Program Controlled setting)
keyo,cid,10,0              ! adjust contact stiffness each NR iteration (from Program Controlled setting)
keyo,cid,12,5              ! bonded always
keyo,cid,18,1              ! small sliding turned on by application
keyo,cid,2,0               ! augmented Lagrange (from Program Controlled setting)
keyo,cid,4,0               ! on Gauss point (from Program Controlled setting)
keyo,cid,9,1               ! ignore initial gaps/penetration
keyo,cid,7,0               ! No Prediction
rmod,tid,3,1.       ! FKN
rmod,tid,5,0.       ! ICONT
rmod,tid,6,0.       ! PINB
rmod,tid,10,0.      ! CNOF
rmod,tid,12,0.      ! FKT
rmod,tid,36,27992   ! WB DSID
rmod,cid,3,1.       ! FKN
rmod,cid,5,0.       ! ICONT
rmod,cid,6,0.       ! PINB
rmod,cid,10,0.      ! CNOF
rmod,cid,12,0.      ! FKT
rmod,cid,36,27992   ! WB DSID
nsel,all
esel,all
/wb,contact,end            !  done creating contacts
/golist
/wb,load,start             !  starting to send loads
/com,*********** Fixed Supports ***********
CMBLOCK,_FIXEDSU,NODE,       73
(8i10)
       136       137       138       139       146       147       154       155
       162       163       164       165       166       167       168       169
       170       171       178       179       180       181       182       183
       184       185       186       187       188       195       196       197
       198       199       200       201       202       203       204       205
       206       207       208       209       210       211       212       213
       214       215       216       217       218       219       220       221
       222       223       224       225       226       227       228       229
       230       231       232       233       234       235       248       278
       279
cmsel,s,_FIXEDSU
d,all,all
nsel,all
/com,******* Constant Zero Displacement X *******
CMBLOCK,_DISPZEROUX,NODE,       61
(8i10)
       307       316       317       318       319       320       321       322
       332       333       334       335       336       337       338       339
       340       341       342       351       352       353       372       373
       374       375       376       377       378       379       380       381
       382       383       384       385       386       387       388       389
       390       391       392       393       394       395       396       397
       398       403       404       405       406       407       408       409
       410       411       412       413       414
cmsel,s,_DISPZEROUX
d,all,ux,0
nsel,all
/com,******* Constant Zero Displacement Z *******
CMBLOCK,_DISPZEROUZ,NODE,       42
(8i10)
       332       333       334       335       336       337       338       339
       340       372       373       374       375       376       377       378
       379       380       387       388       389       390       391       392
       393       394       395       396       397       398       403       404
       405       406       407       408       409       410       411       412
       413       414
cmsel,s,_DISPZEROUZ
d,all,uz,0
nsel,all
/com,*********** Create Displacement Tables and Functions ******

*DIM,_loadvari76yp,TABLE,5,1,1,TIME, , , 0
! Time values
*TAXIS,_loadvari76yp(1),1,0.,0.5,5.,10.,15.
! Load values
_loadvari76yp(1,1,1) = 0.
_loadvari76yp(2,1,1) = 0.
_loadvari76yp(3,1,1) = -25.
_loadvari76yp(4,1,1) = -25.
_loadvari76yp(5,1,1) = 0.



*DIM,_loadvari76yn,TABLE,5,1,1,TIME, , , 0
! Time values
*TAXIS,_loadvari76yn(1),1,0.,0.5,5.,10.,15.
! Load values
_loadvari76yn(1,1,1) = 0.
_loadvari76yn(2,1,1) = 0.
_loadvari76yn(3,1,1) = 25.
_loadvari76yn(4,1,1) = 25.
_loadvari76yn(5,1,1) = 0.


/gst,on,on
fini
*get,_numnode,node,0,count
*get,_numelem,elem,0,count
*get, _MAXELEMNUM, elem, 0, NUM, MAX
*get, _MAXNODENUM, node, 0, NUM, MAX
*get, _MAXELEMTYPE, etyp, 0, NUM, MAX
*get, _MAXREALCONST, rcon, 0, NUM, MAX
/go
/wb,load,end               !  done creating loads
/com,--- Number of total nodes = %_numnode%
/com,--- Number of contact elements = 1058
/com,--- Number of spring elements = 0
/com,--- Number of bearing elements = 0
/com,--- Number of solid elements = 949
/com,--- Number of condensed parts = 0
/com,--- Number of total elements = %_numelem%
*get,_wallbsol,active,,time,wall
/com,****************************************************************************
/com,*************************    SOLUTION       ********************************
/com,****************************************************************************
/solu
antype,4                   ! transient analysis type for quasi static solution
nlgeom,on                  ! Turn on Large Deformation Effects
_thickRatio=  0     ! Ratio of thick parts in the model
eqsl,sparse,,,,,1
nropt,full                 ! Use full Newton-Raphson
cntr,print,1               ! print out contact info and also make no initial contact an error
dmpoption,emat,no             ! Don't combine emat file for DANSYS
dmpoption,esav,no             ! Don't combine esav file for DANSYS
tintp,quas				   ! Backward Euler Time Integration for quasi static solution 
trnopt,,,,,,,,,yes        ! Enable numerical damping for quasi static solution
nldiag,cont,iter           ! print out contact info each equilibrium iteration
rescontrol,define,last,last,,dele	   ! Program Controlled
/com,****************************************************
/com,******************* SOLVE FOR LS 1 OF 3 ****************
/com,*** Set Displacements ***
CMBLOCK,_CM76UY_YP,NODE,       42
(8i10)
       332       333       334       335       336       337       338       339
       340       372       373       374       375       376       377       378
       379       380       387       388       389       390       391       392
       393       394       395       396       397       398       403       404
       405       406       407       408       409       410       411       412
       413       414
cmsel,s,_CM76UY_YP
d,all,uy,%_loadvari76yp%
nsel,all

/com,*** Component For All Non-Zero UY Displacements ***
cmsel,s,_CM76uy_yp
cm,_DISPNONZEROUY,NODE
nsel,all

/nopr
/gopr
autots,off                 ! User turned off automatic time stepping
deltim,3.75e-002,3.75e-002,3.75e-002
time,5.
outres,erase
outres,all,none
outres,nsol,all,
outres,rsol,all
outres,eangl,all
outres,etmp,all
outres,veng,all
outres,strs,all,
outres,epel,all,
outres,eppl,all,
outres,cont,all,
! *********** WB SOLVE COMMAND ***********
! check interactive state
*get,ANSINTER_,active,,int
*if,ANSINTER_,ne,0,then
/eof
*endif
solve
/com *************** Write FE CONNECTORS ********* 
CEWRITE,file,ce,,INTE
/com,****************************************************
/com,*************** FINISHED SOLVE FOR LS 1 *************
/com,****************************************************
/com,******************* SOLVE FOR LS 2 OF 3 ****************
/com,*** Set Displacements ***
/nopr
/gopr
autots,off                 ! User turned off automatic time stepping
deltim,3.75e-002,3.75e-002,3.75e-002
time,10.
outres,erase
outres,all,none
outres,nsol,all,
outres,rsol,all
outres,eangl,all
outres,etmp,all
outres,veng,all
outres,strs,all,
outres,epel,all,
outres,eppl,all,
outres,cont,all,
solve
/com,****************************************************
/com,*************** FINISHED SOLVE FOR LS 2 *************
/com,****************************************************
/com,******************* SOLVE FOR LS 3 OF 3 ****************
/com,*** Set Displacements ***
/nopr
/gopr
autots,off                 ! User turned off automatic time stepping
deltim,3.75e-002,3.75e-002,3.75e-002
time,15.
outres,erase
outres,all,none
outres,nsol,all,
outres,rsol,all
outres,eangl,all
outres,etmp,all
outres,veng,all
outres,strs,all,
outres,epel,all,
outres,eppl,all,
outres,cont,all,
solve
/com,****************************************************
/com,*************** FINISHED SOLVE FOR LS 3 *************
*get,_wallasol,active,,time,wall
/nopr
*get,_numnode,node,0,count
*get,_numelem,elem,0,count
*get, _MAXELEMNUM, elem, 0, NUM, MAX
*get, _MAXNODENUM, node, 0, NUM, MAX,,,INTERNAL
*get, _MAXELEMTYPE, etyp, 0, NUM, MAX
*get, _MAXREALCONST, rcon, 0, NUM, MAX
*get,_NSOLTHREADS,active,0,ntfs
*get,_NSOLPROCESSES,active,0,npfs
/gopr
/post1
xmlo,ENCODING,ISO-8859-1
xmlo,parm
/xml,parm,xml
fini
/gopr
*get,_walldone,active,,time,wall
_preptime=(_wallbsol-_wallstrt)*3600
_solvtime=(_wallasol-_wallbsol)*3600
_posttime=(_walldone-_wallasol)*3600
_totaltim=(_walldone-_wallstrt)*3600
*get,_dlbratio,active,0,solu,dlbr
*get,_combtime,active,0,solu,comb
*get,_ssmode,active,0,solu,ssmm
*get,_ndofs,active,0,solu,ndof
*get,_sol_end_time,active,0,set,time
*if,_sol_end_time,eq,15.000000,then
/fclean				!clean distributed files
*endif
/com,--- Total number of nodes = %_numnode%
/com,--- Total number of elements = %_numelem%
/com,--- Element load balance ratio = %_dlbratio%
/com,--- Time to combine distributed files = %_combtime%
/com,--- Sparse memory mode = %_ssmode%
/com,--- Number of DOF = %_ndofs%
/wb,file,end               ! done with WB generated input
