/batch
/config,noeldb,1     ! force off writing results to database
*get,_wallstrt,active,,time,wall
! ANSYS input file written by Workbench version 2024 R2
! File used for geometry attach: E:\ANK\WEEK_4\VISCO_WK4_2_files\dp0\Geom-4\DM\Geom-4.scdoc
/title,VISCO_WK4_2--Static Structural (B5)
! ****** Begin Custom Load Command Snippet ******
/COM, ACT Extensions:
/COM,     LSDYNA, 2024.2
/COM,     5f463412-bd3e-484b-87e7-cbc0a665e474, wbex
/COM,/COM,     ANSYSMotion, 2024.2
/COM,     20180725-3f81-49eb-9f31-41364844c769, wbex
/COM,
! ****** End   Custom Load Command Snippet ******
*DIM,_wb_ProjectScratch_dir,string,248
_wb_ProjectScratch_dir(1) = 'E:\ANK\WEEK_4\VISCO_WK4_2_files\dp0\SYS-4\MECH\'
*DIM,_wb_SolverFiles_dir,string,248
_wb_SolverFiles_dir(1) = 'E:\ANK\WEEK_4\VISCO_WK4_2_files\dp0\SYS-4\MECH\'
*DIM,_wb_userfiles_dir,string,248
_wb_userfiles_dir(1) = 'E:\ANK\WEEK_4\VISCO_WK4_2_files\user_files\'
/com,--- Data in consistent NMM units. See Solving Units in the help system for more information.
/units,MPA
/nopr
/wb,file,start              !  signify a WB generated input file
/prep7
! Turn off shape checking because checks already performed inside WB mesher.
! See help system for more information.
SHPP,OFF,,NOWARN
/nolist
etcon,set             ! allow ANSYS to choose best KEYOP's for 180x elements, resets any applicable keyopt to MAPDL defaults
/com,*********** Nodes for the whole assembly ***********
nblock,3,,489
(1i9,3e20.9e3)
      136    -1.927211670E+02    -2.000000000E+01     0.000000000E+00
      137    -1.627151970E+02    -1.195992458E+01     0.000000000E+00
      138    -1.771889340E+02    -1.795514273E+01     0.000000000E+00
      139    -1.627151970E+02    -1.195992458E+01    -1.250000000E+02
      140    -1.627151970E+02    -1.195992458E+01    -1.785714286E+01
      141    -1.627151970E+02    -1.195992458E+01    -3.571428571E+01
      142    -1.627151970E+02    -1.195992458E+01    -5.357142857E+01
      143    -1.627151970E+02    -1.195992458E+01    -7.142857143E+01
      144    -1.627151970E+02    -1.195992458E+01    -8.928571429E+01
      145    -1.627151970E+02    -1.195992458E+01    -1.071428571E+02
      146    -1.927211670E+02    -2.000000000E+01    -1.250000000E+02
      147    -1.771889340E+02    -1.795514273E+01    -1.250000000E+02
      148    -1.927211670E+02    -2.000000000E+01    -1.071428571E+02
      149    -1.927211670E+02    -2.000000000E+01    -8.928571429E+01
      150    -1.927211670E+02    -2.000000000E+01    -7.142857143E+01
      151    -1.927211670E+02    -2.000000000E+01    -5.357142857E+01
      152    -1.927211670E+02    -2.000000000E+01    -3.571428571E+01
      153    -1.927211670E+02    -2.000000000E+01    -1.785714286E+01
      154    -1.478012702E+02    -3.349364905E+00     0.000000000E+00
      155    -1.478012702E+02    -3.349364905E+00    -1.250000000E+02
! ... 426 like lines cut
/wb,elem,start            !  set before creation of elements
/com,*********** Elements for Body 1 'Plate' ***********
et,1,185
eblock,19,solid,,265
(19i9)
        1        1        1        1        0        0        0        0        8        0        1       96      112      105      105      123      123      123      123
        1        1        1        1        0        0        0        0        8        0        2       96      123       99       99      112      112      112      112
        1        1        1        1        0        0        0        0        8        0        3       96      132      123      123      105      105      105      105
        1        1        1        1        0        0        0        0        8        0        4       90      105       96       96      112      112      112      112
        1        1        1        1        0        0        0        0        8        0        5       90      112       96       96       99       99       99       99
        1        1        1        1        0        0        0        0        8        0        6       99      121      112      112      123      123      123      123
        1        1        1        1        0        0        0        0        8        0        7       84       99       96       96      123      123      123      123
        1        1        1        1        0        0        0        0        8        0        8       96      132      105      105      122      122      122      122
        1        1        1        1        0        0        0        0        8        0        9       83       96      132      132      123      123      123      123
        1        1        1        1        0        0        0        0        8        0       10       90      109      105      105      112      112      112      112
        1        1        1        1        0        0        0        0        8        0       11       90      112       99       99      117      117      117      117
        1        1        1        1        0        0        0        0        8        0       12       84      121       99       99      123      123      123      123
        1        1        1        1        0        0        0        0        8        0       13       99      131      112      112      121      121      121      121
        1        1        1        1        0        0        0        0        8        0       14       83       96      123      123       84       84       84       84
        1        1        1        1        0        0        0        0        8        0       15       96      105      126      126      122      122      122      122
        1        1        1        1        0        0        0        0        8        0       16       96       98      132      132      122      122      122      122
        1        1        1        1        0        0        0        0        8        0       17       56      123       83       83      132      132      132      132
        1        1        1        1        0        0        0        0        8        0       18       82       96      132      132       83       83       83       83
        1        1        1        1        0        0        0        0        8        0       19       90      112      117      117      109      109      109      109
        1        1        1        1        0        0        0        0        8        0       20       90      109      126      126      105      105      105      105
! ... 246 like lines cut
! Material Id = {74FCC8DB-7E2C-4D34-B0BF-59E91014FE43}
/com,*********** Elements for Body 2 'Lower Die' ***********
et,2,185
eblock,19,solid,,364
(19i9)
        2        2        2        2        0        0        0        0        8        0      266      238      264      260      260      293      293      293      293
        2        2        2        2        0        0        0        0        8        0      267      250      264      293      293      260      260      260      260
        2        2        2        2        0        0        0        0        8        0      268      238      260      244      244      293      293      293      293
        2        2        2        2        0        0        0        0        8        0      269      180      207      293      293      206      206      206      206
        2        2        2        2        0        0        0        0        8        0      270      206      250      264      264      293      293      293      293
        2        2        2        2        0        0        0        0        8        0      271      206      264      207      207      293      293      293      293
        2        2        2        2        0        0        0        0        8        0      272      179      293      180      180      207      207      207      207
        2        2        2        2        0        0        0        0        8        0      273      179      180      293      293      245      245      245      245
        2        2        2        2        0        0        0        0        8        0      274      238      239      264      264      293      293      293      293
        2        2        2        2        0        0        0        0        8        0      275      238      244      245      245      293      293      293      293
        2        2        2        2        0        0        0        0        8        0      276      244      293      250      250      245      245      245      245
        2        2        2        2        0        0        0        0        8        0      277      180      245      250      250      293      293      293      293
        2        2        2        2        0        0        0        0        8        0      278      207      264      239      239      293      293      293      293
        2        2        2        2        0        0        0        0        8        0      279      179      293      239      239      245      245      245      245
        2        2        2        2        0        0        0        0        8        0      280      238      245      239      239      293      293      293      293
        2        2        2        2        0        0        0        0        8        0      281      270      280      278      278      272      272      272      272
        2        2        2        2        0        0        0        0        8        0      282      210      274      247      247      211      211      211      211
        2        2        2        2        0        0        0        0        8        0      283      268      278      269      269      271      271      271      271
        2        2        2        2        0        0        0        0        8        0      284      268      269      278      278      270      270      270      270
        2        2        2        2        0        0        0        0        8        0      285      268      278      272      272      270      270      270      270
! ... 345 like lines cut
! Material Id = {A3093036-FF09-4E71-B329-10478565D830}
/com,*********** Elements for Body 3 'Upper Die' ***********
et,3,185
eblock,19,solid,,321
(19i9)
        3        3        3        3        0        0        0        0        8        0      630      318      350      445      445      443      443      443      443
        3        3        3        3        0        0        0        0        8        0      631      318      350      337      337      445      445      445      445
        3        3        3        3        0        0        0        0        8        0      632      336      351      352      352      445      445      445      445
        3        3        3        3        0        0        0        0        8        0      633      337      350      351      351      445      445      445      445
        3        3        3        3        0        0        0        0        8        0      634      327      435      445      445      337      337      337      337
        3        3        3        3        0        0        0        0        8        0      635      336      351      445      445      337      337      337      337
        3        3        3        3        0        0        0        0        8        0      636      336      445      435      435      337      337      337      337
        3        3        3        3        0        0        0        0        8        0      637      351      411      352      352      445      445      445      445
        3        3        3        3        0        0        0        0        8        0      638      352      411      430      430      445      445      445      445
        3        3        3        3        0        0        0        0        8        0      639      336      435      445      445      430      430      430      430
        3        3        3        3        0        0        0        0        8        0      640      326      445      411      411      443      443      443      443
        3        3        3        3        0        0        0        0        8        0      641      326      435      411      411      445      445      445      445
        3        3        3        3        0        0        0        0        8        0      642      350      411      445      445      443      443      443      443
        3        3        3        3        0        0        0        0        8        0      643      350      411      351      351      445      445      445      445
        3        3        3        3        0        0        0        0        8        0      644      411      445      435      435      430      430      430      430
        3        3        3        3        0        0        0        0        8        0      645      382      389      398      398      388      388      388      388
        3        3        3        3        0        0        0        0        8        0      646      382      398      392      392      388      388      388      388
        3        3        3        3        0        0        0        0        8        0      647      387      398      389      389      388      388      388      388
        3        3        3        3        0        0        0        0        8        0      648      388      398      392      392      418      418      418      418
        3        3        3        3        0        0        0        0        8        0      649      387      418      398      398      388      388      388      388
! ... 302 like lines cut
! Material Id = {6C4F2C9F-937E-4F95-AFE9-C4F5945E4210}
/wb,elem,end               !  done creating elements
/com,*********** Send User Defined Coordinate System(s) ***********
csys,0
toffst,273.15,      ! Temperature offset from absolute zero
/com,*********** Set Reference Temperature ***********
tref,22.
/wb,mat,start              !  starting to send materials
/com,*********** Send Materials ***********

TB,PRONY,1,1,6,BULK
TBTEMP,869
TBDATA,1,0.0222,5.009e-05,0.0224,0.0009945,0.0286,0.002022
TBDATA,7,0.2137,0.01925,0.394,0.1199,0.3191,2.033

TB,PRONY,1,1,6,SHEAR
TBTEMP,595.85
TBDATA,1,0.05523,6.658e-05,0.08205,0.001197,0.1215,0.01514
TBDATA,7,0.2286,0.1672,0.286,0.7497,0.22662,3.292
MP,DENS,1,2.74e-09,	! tonne mm^-3
MP,EX,1,70000,	! tonne s^-2 mm^-1
MP,NUXY,1,0.22,
MP,UVID,1,97a6bb41-32eb-488c-bbc2-9600d081f55b

Temperature = 'TEMP' ! Temperature
MP,DENS,2,4.62e-09,	! tonne mm^-3
MP,ALPX,2,9.4e-06,	! C^-1
MP,C,2,522000000,	! mm^2 s^-2 C^-1
MP,KXX,2,21.9,	! tonne mm s^-3 C^-1
MP,RSVX,2,0.0017,	! ohm mm
MP,EX,2,96000,	! tonne s^-2 mm^-1
MP,NUXY,2,0.36,
MP,MURX,2,1,
MP,UVID,2,283b7a77-d900-47ec-82e2-79ef1753b86c
MP,UMID,2,c4cc4a57-3226-45fe-b3f8-5a83eb845bd6

Temperature = 'TEMP' ! Temperature
MP,DENS,3,4.62e-09,	! tonne mm^-3
MP,ALPX,3,9.4e-06,	! C^-1
MP,C,3,522000000,	! mm^2 s^-2 C^-1
MP,KXX,3,21.9,	! tonne mm s^-3 C^-1
MP,RSVX,3,0.0017,	! ohm mm
MP,EX,3,96000,	! tonne s^-2 mm^-1
MP,NUXY,3,0.36,
MP,MURX,3,1,
MP,UVID,3,283b7a77-d900-47ec-82e2-79ef1753b86c
MP,UMID,3,c4cc4a57-3226-45fe-b3f8-5a83eb845bd6

/wb,mat,end                !  done sending materials
!************************* Model Summary ********************
!Plate,	VISCO,	matid,	1
!Lower Die,	Titanium Alloy,	matid,	2
!Upper Die,	Titanium Alloy,	matid,	3
!************************* End Model Summary ********************
! get the diagonal of the bounding box. Needed later for other things
*get,_xmin,node,,mnloc,x
*get,_ymin,node,,mnloc,y
*get,_zmin,node,,mnloc,z
*get,_xmax,node,,mxloc,x
*get,_ymax,node,,mxloc,y
*get,_zmax,node,,mxloc,z
_ASMDIAG=(_xmax-_xmin)*(_xmax-_xmin)+(_ymax-_ymin)*(_ymax-_ymin)+(_zmax-_zmin)*(_zmax-_zmin)
_ASMDIAG=SQRT(_ASMDIAG)
/wb,contact,start          !  starting to send contact
/com,*********** Create Contact "Frictional - No Selection To No Selection" ***********
/com,            Real Constant Set For Above Contact Is 5 & 4 
*set,tid,5
*set,cid,4
r,tid
r,cid
et,tid,170
et,cid,174
eblock,10,,,69
(15i9)
     1799        5        5        5        0       30       31       93       93
     1800        5        5        5        0       29       30       93       93
     1801        5        5        5        0       71       94       72       72
     1802        5        5        5        0       72       94       75       75
     1803        5        5        5        0       75       94       76       76
     1804        5        5        5        0       70       94       71       71
     1805        5        5        5        0       79       95       80       80
     1806        5        5        5        0       78       95       79       79
     1807        5        5        5        0       74       85       86       86
     1808        5        5        5        0       26       27       91       91
     1809        5        5        5        0       33       34       90       90
     1810        5        5        5        0       20       89       36       36
     1811        5        5        5        0        2       21       68       68
     1812        5        5        5        0       72       75       73       73
     1813        5        5        5        0       92      100       94       94
     1814        5        5        5        0       96       98      102      102
     1815        5        5        5        0       91      101       95       95
     1816        5        5        5        0       91       95      100      100
     1817        5        5        5        0       67       73       75       75
     1818        5        5        5        0       91      100       92       92
! ... 50 like lines cut
eblock,10,,,69
(15i9)
     1868        4        4        4        0       30       31       93       93
     1869        4        4        4        0       29       30       93       93
     1870        4        4        4        0       71       94       72       72
     1871        4        4        4        0       72       94       75       75
     1872        4        4        4        0       75       94       76       76
     1873        4        4        4        0       70       94       71       71
     1874        4        4        4        0       79       95       80       80
     1875        4        4        4        0       78       95       79       79
     1876        4        4        4        0       74       85       86       86
     1877        4        4        4        0       26       27       91       91
     1878        4        4        4        0       33       34       90       90
     1879        4        4        4        0       20       89       36       36
     1880        4        4        4        0        2       21       68       68
     1881        4        4        4        0       72       75       73       73
     1882        4        4        4        0       92      100       94       94
     1883        4        4        4        0       96       98      102      102
     1884        4        4        4        0       91      101       95       95
     1885        4        4        4        0       91       95      100      100
     1886        4        4        4        0       67       73       75       75
     1887        4        4        4        0       91      100       92       92
! ... 50 like lines cut
eblock,10,,,150
(15i9)
     1937        4        5        4        0      318      319      327      327
     1938        4        5        4        0      319      311      312      312
     1939        4        5        4        0      310      321      317      317
     1940        4        5        4        0      321      320      322      322
     1941        4        5        4        0      312      313      327      327
     1942        4        5        4        0      313      314      326      326
     1943        4        5        4        0      314      315      325      325
     1944        4        5        4        0      315      316      324      324
     1945        4        5        4        0      316      317      323      323
     1946        4        5        4        0      322      323      317      317
     1947        4        5        4        0      323      324      316      316
     1948        4        5        4        0      324      325      315      315
     1949        4        5        4        0      325      326      314      314
     1950        4        5        4        0      326      327      313      313
     1951        4        5        4        0      327      319      312      312
     1952        4        5        4        0      317      321      322      322
     1953        4        5        4        0      320      367      322      322
     1954        4        5        4        0      328      329      376      376
     1955        4        5        4        0      426      429      431      431
     1956        4        5        4        0      331      332      426      426
! ... 131 like lines cut
eblock,10,,,150
(15i9)
     2087        5        4        5        0      318      319      327      327
     2088        5        4        5        0      319      311      312      312
     2089        5        4        5        0      310      321      317      317
     2090        5        4        5        0      321      320      322      322
     2091        5        4        5        0      312      313      327      327
     2092        5        4        5        0      313      314      326      326
     2093        5        4        5        0      314      315      325      325
     2094        5        4        5        0      315      316      324      324
     2095        5        4        5        0      316      317      323      323
     2096        5        4        5        0      322      323      317      317
     2097        5        4        5        0      323      324      316      316
     2098        5        4        5        0      324      325      315      315
     2099        5        4        5        0      325      326      314      314
     2100        5        4        5        0      326      327      313      313
     2101        5        4        5        0      327      319      312      312
     2102        5        4        5        0      317      321      322      322
     2103        5        4        5        0      320      367      322      322
     2104        5        4        5        0      328      329      376      376
     2105        5        4        5        0      426      429      431      431
     2106        5        4        5        0      331      332      426      426
! ... 131 like lines cut
keyo,cid,8,2               ! auto create asymmetric contact (from Program Controlled setting)
keyo,cid,10,0              ! adjust contact stiffness each NR iteration (from Program Controlled setting)
keyo,cid,12,0              ! standard contact
mp,mu,cid,0.2       ! unitless
keyo,cid,2,0               ! augmented Lagrange (from Program Controlled setting)
keyo,cid,4,0               ! on Gauss point (from Program Controlled setting)
keyo,cid,9,0               ! use real geometry with stepped effects
keyo,cid,7,0               ! No Prediction
rmod,tid,3,1.       ! FKN
rmod,tid,5,0.       ! ICONT
rmod,tid,6,0.       ! PINB
rmod,tid,10,0.      ! CNOF
rmod,tid,12,0.      ! FKT
rmod,tid,36,40      ! WB DSID
rmod,cid,3,1.       ! FKN
rmod,cid,5,0.       ! ICONT
rmod,cid,6,0.       ! PINB
rmod,cid,10,0.      ! CNOF
rmod,cid,12,0.      ! FKT
rmod,cid,36,40      ! WB DSID
/com,*********** Create Contact "Frictional - No Selection To No Selection" ***********
/com,            Real Constant Set For Above Contact Is 7 & 6 
*set,tid,7
*set,cid,6
r,tid
r,cid
et,tid,170
et,cid,174
eblock,10,,,108
(15i9)
     2237        7        7        7        0      107      129      124      124
     2238        7        7        7        0      108      110      134      134
     2239        7        7        7        0      113      120      130      130
     2240        7        7        7        0      122      126      125      125
     2241        7        7        7        0      106      115      118      118
     2242        7        7        7        0      107      115      129      129
     2243        7        7        7        0      109      114      126      126
     2244        7        7        7        0      108      118      115      115
     2245        7        7        7        0      107      124      113      113
     2246        7        7        7        0      106      128      115      115
     2247        7        7        7        0      114      125      126      126
     2248        7        7        7        0      115      128      129      129
     2249        7        7        7        0      106      127      128      128
     2250        7        7        7        0      106      114      127      127
     2251        7        7        7        0      106      125      114      114
     2252        7        7        7        0      113      124      120      120
     2253        7        7        7        0      112      123      121      121
     2254        7        7        7        0      106      118      125      125
     2255        7        7        7        0      105      109      126      126
     2256        7        7        7        0      111      118      119      119
! ... 89 like lines cut
eblock,10,,,108
(15i9)
     2345        6        6        6        0      107      129      124      124
     2346        6        6        6        0      108      110      134      134
     2347        6        6        6        0      113      120      130      130
     2348        6        6        6        0      122      126      125      125
     2349        6        6        6        0      106      115      118      118
     2350        6        6        6        0      107      115      129      129
     2351        6        6        6        0      109      114      126      126
     2352        6        6        6        0      108      118      115      115
     2353        6        6        6        0      107      124      113      113
     2354        6        6        6        0      106      128      115      115
     2355        6        6        6        0      114      125      126      126
     2356        6        6        6        0      115      128      129      129
     2357        6        6        6        0      106      127      128      128
     2358        6        6        6        0      106      114      127      127
     2359        6        6        6        0      106      125      114      114
     2360        6        6        6        0      113      124      120      120
     2361        6        6        6        0      112      123      121      121
     2362        6        6        6        0      106      118      125      125
     2363        6        6        6        0      105      109      126      126
     2364        6        6        6        0      111      118      119      119
! ... 89 like lines cut
eblock,10,,,90
(15i9)
     2453        6        7        6        0      136      138      153      153
     2454        6        7        6        0      138      137      140      140
     2455        6        7        6        0      139      147      145      145
     2456        6        7        6        0      147      146      148      148
     2457        6        7        6        0      140      141      153      153
     2458        6        7        6        0      141      142      152      152
     2459        6        7        6        0      142      143      151      151
     2460        6        7        6        0      143      144      150      150
     2461        6        7        6        0      144      145      149      149
     2462        6        7        6        0      148      149      145      145
     2463        6        7        6        0      149      150      144      144
     2464        6        7        6        0      150      151      143      143
     2465        6        7        6        0      151      152      142      142
     2466        6        7        6        0      152      153      141      141
     2467        6        7        6        0      153      138      140      140
     2468        6        7        6        0      145      147      148      148
     2469        6        7        6        0      161      140      154      154
     2470        6        7        6        0      157      145      144      144
     2471        6        7        6        0      158      143      159      159
     2472        6        7        6        0      156      145      157      157
! ... 71 like lines cut
eblock,10,,,90
(15i9)
     2543        7        6        7        0      136      138      153      153
     2544        7        6        7        0      138      137      140      140
     2545        7        6        7        0      139      147      145      145
     2546        7        6        7        0      147      146      148      148
     2547        7        6        7        0      140      141      153      153
     2548        7        6        7        0      141      142      152      152
     2549        7        6        7        0      142      143      151      151
     2550        7        6        7        0      143      144      150      150
     2551        7        6        7        0      144      145      149      149
     2552        7        6        7        0      148      149      145      145
     2553        7        6        7        0      149      150      144      144
     2554        7        6        7        0      150      151      143      143
     2555        7        6        7        0      151      152      142      142
     2556        7        6        7        0      152      153      141      141
     2557        7        6        7        0      153      138      140      140
     2558        7        6        7        0      145      147      148      148
     2559        7        6        7        0      161      140      154      154
     2560        7        6        7        0      157      145      144      144
     2561        7        6        7        0      158      143      159      159
     2562        7        6        7        0      156      145      157      157
! ... 71 like lines cut
keyo,cid,8,2               ! auto create asymmetric contact (from Program Controlled setting)
keyo,cid,10,0              ! adjust contact stiffness each NR iteration (from Program Controlled setting)
keyo,cid,12,0              ! standard contact
mp,mu,cid,0.2       ! unitless
keyo,cid,2,0               ! augmented Lagrange (from Program Controlled setting)
keyo,cid,4,0               ! on Gauss point (from Program Controlled setting)
keyo,cid,9,0               ! use real geometry with stepped effects
keyo,cid,7,0               ! No Prediction
rmod,tid,3,1.       ! FKN
rmod,tid,5,0.       ! ICONT
rmod,tid,6,0.       ! PINB
rmod,tid,10,0.      ! CNOF
rmod,tid,12,0.      ! FKT
rmod,tid,36,43      ! WB DSID
rmod,cid,3,1.       ! FKN
rmod,cid,5,0.       ! ICONT
rmod,cid,6,0.       ! PINB
rmod,cid,10,0.      ! CNOF
rmod,cid,12,0.      ! FKT
rmod,cid,36,43      ! WB DSID
/com,*********** Create Contact "Contact Region 4" ***********
/com,            Real Constant Set For Above Contact Is 9 & 8 
*set,tid,9
*set,cid,8
r,tid
r,cid
et,tid,170
et,cid,174
eblock,10,,,58
(15i9)
     2633        9        9        9        0      107      129      124      124
     2634        9        9        9        0      108      110      134      134
     2635        9        9        9        0      113      120      130      130
     2636        9        9        9        0      106      115      118      118
     2637        9        9        9        0      107      115      129      129
     2638        9        9        9        0      108      118      115      115
     2639        9        9        9        0      107      124      113      113
     2640        9        9        9        0      106      128      115      115
     2641        9        9        9        0      115      128      129      129
     2642        9        9        9        0      106      127      128      128
     2643        9        9        9        0      113      124      120      120
     2644        9        9        9        0      106      118      125      125
     2645        9        9        9        0      111      118      119      119
     2646        9        9        9        0      108      119      118      118
     2647        9        9        9        0      110      113      116      116
     2648        9        9        9        0      107      113      110      110
     2649        9        9        9        0      113      130      116      116
     2650        9        9        9        0      111      125      118      118
     2651        9        9        9        0      108      133      119      119
     2652        9        9        9        0      108      107      110      110
! ... 39 like lines cut
eblock,10,,,58
(15i9)
     2691        8        8        8        0      107      129      124      124
     2692        8        8        8        0      108      110      134      134
     2693        8        8        8        0      113      120      130      130
     2694        8        8        8        0      106      115      118      118
     2695        8        8        8        0      107      115      129      129
     2696        8        8        8        0      108      118      115      115
     2697        8        8        8        0      107      124      113      113
     2698        8        8        8        0      106      128      115      115
     2699        8        8        8        0      115      128      129      129
     2700        8        8        8        0      106      127      128      128
     2701        8        8        8        0      113      124      120      120
     2702        8        8        8        0      106      118      125      125
     2703        8        8        8        0      111      118      119      119
     2704        8        8        8        0      108      119      118      118
     2705        8        8        8        0      110      113      116      116
     2706        8        8        8        0      107      113      110      110
     2707        8        8        8        0      113      130      116      116
     2708        8        8        8        0      111      125      118      118
     2709        8        8        8        0      108      133      119      119
     2710        8        8        8        0      108      107      110      110
! ... 39 like lines cut
eblock,10,,,60
(15i9)
     2749        8        9        8        0      162      156      169      169
     2750        8        9        8        0      154      163      164      164
     2751        8        9        8        0      155      156      162      162
     2752        8        9        8        0      156      157      169      169
     2753        8        9        8        0      157      158      168      168
     2754        8        9        8        0      158      159      167      167
     2755        8        9        8        0      159      160      166      166
     2756        8        9        8        0      160      161      165      165
     2757        8        9        8        0      164      165      161      161
     2758        8        9        8        0      165      166      160      160
     2759        8        9        8        0      166      167      159      159
     2760        8        9        8        0      167      168      158      158
     2761        8        9        8        0      168      169      157      157
     2762        8        9        8        0      161      154      164      164
     2763        8        9        8        0      213      268      272      272
     2764        8        9        8        0      268      270      272      272
     2765        8        9        8        0      163      214      164      164
     2766        8        9        8        0      164      214      272      272
     2767        8        9        8        0      165      272      166      166
     2768        8        9        8        0      167      272      270      270
! ... 41 like lines cut
eblock,10,,,60
(15i9)
     2809        9        8        9        0      162      156      169      169
     2810        9        8        9        0      154      163      164      164
     2811        9        8        9        0      155      156      162      162
     2812        9        8        9        0      156      157      169      169
     2813        9        8        9        0      157      158      168      168
     2814        9        8        9        0      158      159      167      167
     2815        9        8        9        0      159      160      166      166
     2816        9        8        9        0      160      161      165      165
     2817        9        8        9        0      164      165      161      161
     2818        9        8        9        0      165      166      160      160
     2819        9        8        9        0      166      167      159      159
     2820        9        8        9        0      167      168      158      158
     2821        9        8        9        0      168      169      157      157
     2822        9        8        9        0      161      154      164      164
     2823        9        8        9        0      213      268      272      272
     2824        9        8        9        0      268      270      272      272
     2825        9        8        9        0      163      214      164      164
     2826        9        8        9        0      164      214      272      272
     2827        9        8        9        0      165      272      166      166
     2828        9        8        9        0      167      272      270      270
! ... 41 like lines cut
keyo,cid,8,2               ! auto create asymmetric contact (from Program Controlled setting)
keyo,cid,10,0              ! adjust contact stiffness each NR iteration (from Program Controlled setting)
keyo,cid,12,5              ! bonded always
keyo,cid,18,1              ! small sliding turned on by application
keyo,cid,2,0               ! augmented Lagrange (from Program Controlled setting)
keyo,cid,4,0               ! on Gauss point (from Program Controlled setting)
keyo,cid,9,1               ! ignore initial gaps/penetration
keyo,cid,7,0               ! No Prediction
rmod,tid,3,1.       ! FKN
rmod,tid,5,0.       ! ICONT
rmod,tid,6,0.       ! PINB
rmod,tid,10,0.      ! CNOF
rmod,tid,12,0.      ! FKT
rmod,tid,36,25254   ! WB DSID
rmod,cid,3,1.       ! FKN
rmod,cid,5,0.       ! ICONT
rmod,cid,6,0.       ! PINB
rmod,cid,10,0.      ! CNOF
rmod,cid,12,0.      ! FKT
rmod,cid,36,25254   ! WB DSID
nsel,all
esel,all
/wb,contact,end            !  done creating contacts
/golist
/wb,load,start             !  starting to send loads
/com,*********** Fixed Supports ***********
CMBLOCK,_FIXEDSU,NODE,       72
(8i10)
       136       137       138       139       146       147       154       155
       162       163       170       171       172       173       174       175
       176       177       178       179       180       181       182       183
       184       185       186       187       188       189       190       191
       192       193       194       195       196       197       198       199
       200       201       202       203       204       205       206       207
       208       209       210       211       212       213       214       221
       222       223       224       225       226       227       228       229
       230       231       232       233       246       247       279       283

cmsel,s,_FIXEDSU
d,all,all
nsel,all
/com,******* Constant Zero Displacement X *******
CMBLOCK,_DISPZEROUX,NODE,       57
(8i10)
       294       303       304       305       306       307       308       309
       328       338       339       340       359       360       361       362
       363       364       365       366       376       377       378       379
       380       381       382       383       384       385       386       387
       388       389       390       392       393       394       395       396
       397       398       399       400       401       402       403       413
       414       415       416       417       418       419       420       421
       422
cmsel,s,_DISPZEROUX
d,all,ux,0
nsel,all
/com,******* Constant Zero Displacement Z *******
CMBLOCK,_DISPZEROUZ,NODE,       38
(8i10)
       294       303       304       305       306       307       308       309
       359       360       361       362       363       364       365       382
       383       384       385       386       387       388       392       393
       394       395       396       397       413       414       415       416
       417       418       419       420       421       422
cmsel,s,_DISPZEROUZ
d,all,uz,0
nsel,all
/com,*********** Create Displacement Tables and Functions ******

*DIM,_loadvari76yp,TABLE,5,1,1,TIME, , , 0
! Time values
*TAXIS,_loadvari76yp(1),1,0.,0.5,5.,10.,15.
! Load values
_loadvari76yp(1,1,1) = 0.
_loadvari76yp(2,1,1) = 0.
_loadvari76yp(3,1,1) = -25.
_loadvari76yp(4,1,1) = -25.
_loadvari76yp(5,1,1) = 0.



*DIM,_loadvari76yn,TABLE,5,1,1,TIME, , , 0
! Time values
*TAXIS,_loadvari76yn(1),1,0.,0.5,5.,10.,15.
! Load values
_loadvari76yn(1,1,1) = 0.
_loadvari76yn(2,1,1) = 0.
_loadvari76yn(3,1,1) = 25.
_loadvari76yn(4,1,1) = 25.
_loadvari76yn(5,1,1) = 0.


/gst,on,on
fini
*get,_numnode,node,0,count
*get,_numelem,elem,0,count
*get, _MAXELEMNUM, elem, 0, NUM, MAX
*get, _MAXNODENUM, node, 0, NUM, MAX
*get, _MAXELEMTYPE, etyp, 0, NUM, MAX
*get, _MAXREALCONST, rcon, 0, NUM, MAX
/go
/wb,load,end               !  done creating loads
/com,--- Number of total nodes = %_numnode%
/com,--- Number of contact elements = 1070
/com,--- Number of spring elements = 0
/com,--- Number of bearing elements = 0
/com,--- Number of solid elements = 950
/com,--- Number of condensed parts = 0
/com,--- Number of total elements = %_numelem%
*get,_wallbsol,active,,time,wall
/com,****************************************************************************
/com,*************************    SOLUTION       ********************************
/com,****************************************************************************
/solu
antype,4                   ! transient analysis type for quasi static solution
nlgeom,on                  ! Turn on Large Deformation Effects
_thickRatio=  0     ! Ratio of thick parts in the model
eqsl,sparse,,,,,1
nropt,full                 ! Use full Newton-Raphson
cntr,print,1               ! print out contact info and also make no initial contact an error
tintp,quas				   ! Backward Euler Time Integration for quasi static solution 
trnopt,,,,,,,,,yes        ! Enable numerical damping for quasi static solution
nldiag,cont,iter           ! print out contact info each equilibrium iteration
rescontrol,define,last,last,,dele	   ! Program Controlled
/com,****************************************************
/com,******************* SOLVE FOR LS 1 OF 3 ****************
/com,*** Set Displacements ***
CMBLOCK,_CM76UY_YP,NODE,       38
(8i10)
       294       303       304       305       306       307       308       309
       359       360       361       362       363       364       365       382
       383       384       385       386       387       388       392       393
       394       395       396       397       413       414       415       416
       417       418       419       420       421       422
cmsel,s,_CM76UY_YP
d,all,uy,%_loadvari76yp%
nsel,all

/com,*** Component For All Non-Zero UY Displacements ***
cmsel,s,_CM76uy_yp
cm,_DISPNONZEROUY,NODE
nsel,all

/nopr
/gopr
autots,off                 ! User turned off automatic time stepping
deltim,3.75e-002,3.75e-002,3.75e-002
time,5.
outres,erase
outres,all,none
outres,nsol,all,
outres,rsol,all
outres,eangl,all
outres,etmp,all
outres,veng,all
outres,strs,all,
outres,epel,all,
outres,eppl,all,
outres,cont,all,
! *********** WB SOLVE COMMAND ***********
! check interactive state
*get,ANSINTER_,active,,int
*if,ANSINTER_,ne,0,then
/eof
*endif
solve
/com *************** Write FE CONNECTORS ********* 
CEWRITE,file,ce,,INTE
/com,****************************************************
/com,*************** FINISHED SOLVE FOR LS 1 *************
/com,****************************************************
/com,******************* SOLVE FOR LS 2 OF 3 ****************
/com,*** Set Displacements ***
/nopr
/gopr
autots,off                 ! User turned off automatic time stepping
deltim,3.75e-002,3.75e-002,3.75e-002
time,10.
outres,erase
outres,all,none
outres,nsol,all,
outres,rsol,all
outres,eangl,all
outres,etmp,all
outres,veng,all
outres,strs,all,
outres,epel,all,
outres,eppl,all,
outres,cont,all,
solve
/com,****************************************************
/com,*************** FINISHED SOLVE FOR LS 2 *************
/com,****************************************************
/com,******************* SOLVE FOR LS 3 OF 3 ****************
/com,*** Set Displacements ***
/nopr
/gopr
autots,off                 ! User turned off automatic time stepping
deltim,3.75e-002,3.75e-002,3.75e-002
time,15.
outres,erase
outres,all,none
outres,nsol,all,
outres,rsol,all
outres,eangl,all
outres,etmp,all
outres,veng,all
outres,strs,all,
outres,epel,all,
outres,eppl,all,
outres,cont,all,
solve
/com,****************************************************
/com,*************** FINISHED SOLVE FOR LS 3 *************
*get,_wallasol,active,,time,wall
/nopr
*get,_numnode,node,0,count
*get,_numelem,elem,0,count
*get, _MAXELEMNUM, elem, 0, NUM, MAX
*get, _MAXNODENUM, node, 0, NUM, MAX,,,INTERNAL
*get, _MAXELEMTYPE, etyp, 0, NUM, MAX
*get, _MAXREALCONST, rcon, 0, NUM, MAX
*get,_NSOLTHREADS,active,0,ntfs
*get,_NSOLPROCESSES,active,0,npfs
/gopr
/post1
xmlo,ENCODING,ISO-8859-1
xmlo,parm
/xml,parm,xml
fini
/gopr
*get,_walldone,active,,time,wall
_preptime=(_wallbsol-_wallstrt)*3600
_solvtime=(_wallasol-_wallbsol)*3600
_posttime=(_walldone-_wallasol)*3600
_totaltim=(_walldone-_wallstrt)*3600
*get,_dlbratio,active,0,solu,dlbr
*get,_combtime,active,0,solu,comb
*get,_ssmode,active,0,solu,ssmm
*get,_ndofs,active,0,solu,ndof
/com,--- Total number of nodes = %_numnode%
/com,--- Total number of elements = %_numelem%
/com,--- Element load balance ratio = %_dlbratio%
/com,--- Time to combine distributed files = %_combtime%
/com,--- Sparse memory mode = %_ssmode%
/com,--- Number of DOF = %_ndofs%
/wb,file,end               ! done with WB generated input
