/batch
/config,noeldb,1     ! force off writing results to database
*get,_wallstrt,active,,time,wall
! ANSYS input file written by Workbench version 2024 R2
! File used for geometry attach: E:\ANK\WEEK_4\VISCO_WK4_1_files\dp0\Geom-4\DM\Geom-4.scdoc
/title,VISCO_WK4_1--Static Structural (B5)
! ****** Begin Custom Load Command Snippet ******
/COM, ACT Extensions:
/COM,     LSDYNA, 2024.2
/COM,     5f463412-bd3e-484b-87e7-cbc0a665e474, wbex
/COM,/COM,     ANSYSMotion, 2024.2
/COM,     20180725-3f81-49eb-9f31-41364844c769, wbex
/COM,
! ****** End   Custom Load Command Snippet ******
*DIM,_wb_ProjectScratch_dir,string,248
_wb_ProjectScratch_dir(1) = 'E:\ANK\WEEK_4\VISCO_WK4_1_files\dp0\SYS-4\MECH\'
*DIM,_wb_SolverFiles_dir,string,248
_wb_SolverFiles_dir(1) = 'E:\ANK\WEEK_4\VISCO_WK4_1_files\dp0\SYS-4\MECH\'
*DIM,_wb_userfiles_dir,string,248
_wb_userfiles_dir(1) = 'E:\ANK\WEEK_4\VISCO_WK4_1_files\user_files\'
/com,--- Data in consistent NMM units. See Solving Units in the help system for more information.
/units,MPA
/nopr
/wb,file,start              !  signify a WB generated input file
/prep7
! Turn off shape checking because checks already performed inside WB mesher.
! See help system for more information.
SHPP,OFF,,NOWARN
/nolist
etcon,set             ! allow ANSYS to choose best KEYOP's for 180x elements, resets any applicable keyopt to MAPDL defaults
/com,*********** Nodes for the whole assembly ***********
nblock,3,,490
(1i9,3e20.9e3)
        1     0.000000000E+00     0.000000000E+00    -1.250000000E+02
        2     0.000000000E+00     1.000000000E+01    -1.250000000E+02
        3    -3.000000000E+02     0.000000000E+00    -1.250000000E+02
        4    -2.823529412E+02     0.000000000E+00    -1.250000000E+02
        5    -2.647058824E+02     0.000000000E+00    -1.250000000E+02
        6    -2.470588235E+02     0.000000000E+00    -1.250000000E+02
        7    -2.294117647E+02     0.000000000E+00    -1.250000000E+02
        8    -2.117647059E+02     0.000000000E+00    -1.250000000E+02
        9    -1.941176471E+02     0.000000000E+00    -1.250000000E+02
       10    -1.764705882E+02     0.000000000E+00    -1.250000000E+02
       11    -1.588235294E+02     0.000000000E+00    -1.250000000E+02
       12    -1.411764706E+02     0.000000000E+00    -1.250000000E+02
       13    -1.235294118E+02     0.000000000E+00    -1.250000000E+02
       14    -1.058823529E+02     0.000000000E+00    -1.250000000E+02
       15    -8.823529412E+01     0.000000000E+00    -1.250000000E+02
       16    -7.058823529E+01     0.000000000E+00    -1.250000000E+02
       17    -5.294117647E+01     0.000000000E+00    -1.250000000E+02
       18    -3.529411765E+01     0.000000000E+00    -1.250000000E+02
       19    -1.764705882E+01     0.000000000E+00    -1.250000000E+02
       20    -3.000000000E+02     1.000000000E+01    -1.250000000E+02
! ... 427 like lines cut
/wb,elem,start            !  set before creation of elements
/com,*********** Elements for Body 1 'Plate' ***********
et,1,185
eblock,19,solid,,265
(19i9)
        1        1        1        1        0        0        0        0        8        0        1       96      112      105      105      123      123      123      123
        1        1        1        1        0        0        0        0        8        0        2       96      123       99       99      112      112      112      112
        1        1        1        1        0        0        0        0        8        0        3       96      132      123      123      105      105      105      105
        1        1        1        1        0        0        0        0        8        0        4       90      105       96       96      112      112      112      112
        1        1        1        1        0        0        0        0        8        0        5       90      112       96       96       99       99       99       99
        1        1        1        1        0        0        0        0        8        0        6       99      121      112      112      123      123      123      123
        1        1        1        1        0        0        0        0        8        0        7       84       99       96       96      123      123      123      123
        1        1        1        1        0        0        0        0        8        0        8       96      132      105      105      122      122      122      122
        1        1        1        1        0        0        0        0        8        0        9       83       96      132      132      123      123      123      123
        1        1        1        1        0        0        0        0        8        0       10       90      109      105      105      112      112      112      112
        1        1        1        1        0        0        0        0        8        0       11       90      112       99       99      117      117      117      117
        1        1        1        1        0        0        0        0        8        0       12       84      121       99       99      123      123      123      123
        1        1        1        1        0        0        0        0        8        0       13       99      131      112      112      121      121      121      121
        1        1        1        1        0        0        0        0        8        0       14       83       96      123      123       84       84       84       84
        1        1        1        1        0        0        0        0        8        0       15       96      105      126      126      122      122      122      122
        1        1        1        1        0        0        0        0        8        0       16       96       98      132      132      122      122      122      122
        1        1        1        1        0        0        0        0        8        0       17       56      123       83       83      132      132      132      132
        1        1        1        1        0        0        0        0        8        0       18       82       96      132      132       83       83       83       83
        1        1        1        1        0        0        0        0        8        0       19       90      112      117      117      109      109      109      109
        1        1        1        1        0        0        0        0        8        0       20       90      109      126      126      105      105      105      105
! ... 246 like lines cut
! Material Id = {74FCC8DB-7E2C-4D34-B0BF-59E91014FE43}
/com,*********** Elements for Body 2 'Lower Die' ***********
et,2,185
eblock,19,solid,,344
(19i9)
        2        2        2        2        0        0        0        0        8        0      266      139      148      266      266      147      147      147      147
        2        2        2        2        0        0        0        0        8        0      267      138      139      266      266      147      147      147      147
        2        2        2        2        0        0        0        0        8        0      268      147      266      271      271      148      148      148      148
        2        2        2        2        0        0        0        0        8        0      269      139      266      148      148      140      140      140      140
        2        2        2        2        0        0        0        0        8        0      270      138      266      146      146      147      147      147      147
        2        2        2        2        0        0        0        0        8        0      271      146      271      147      147      266      266      266      266
        2        2        2        2        0        0        0        0        8        0      272      138      201      146      146      266      266      266      266
        2        2        2        2        0        0        0        0        8        0      273      136      201      146      146      138      138      138      138
        2        2        2        2        0        0        0        0        8        0      274      200      260      271      271      266      266      266      266
        2        2        2        2        0        0        0        0        8        0      275      263      271      266      266      268      268      268      268
        2        2        2        2        0        0        0        0        8        0      276      140      148      149      149      268      268      268      268
        2        2        2        2        0        0        0        0        8        0      277      148      271      149      149      268      268      268      268
        2        2        2        2        0        0        0        0        8        0      278      136      145      146      146      201      201      201      201
        2        2        2        2        0        0        0        0        8        0      279      145      279      271      271      200      200      200      200
        2        2        2        2        0        0        0        0        8        0      280      260      271      266      266      263      263      263      263
        2        2        2        2        0        0        0        0        8        0      281      263      272      271      271      268      268      268      268
        2        2        2        2        0        0        0        0        8        0      282      140      149      141      141      268      268      268      268
        2        2        2        2        0        0        0        0        8        0      283      149      271      272      272      268      268      268      268
        2        2        2        2        0        0        0        0        8        0      284      159      272      263      263      268      268      268      268
        2        2        2        2        0        0        0        0        8        0      285      263      270      271      271      272      272      272      272
! ... 325 like lines cut
! Material Id = {A3093036-FF09-4E71-B329-10478565D830}
/com,*********** Elements for Body 3 'Upper Die' ***********
et,3,185
eblock,19,solid,,353
(19i9)
        3        3        3        3        0        0        0        0        8        0      610      325      420      432      432      446      446      446      446
        3        3        3        3        0        0        0        0        8        0      611      298      446      350      350      444      444      444      444
        3        3        3        3        0        0        0        0        8        0      612      350      446      432      432      444      444      444      444
        3        3        3        3        0        0        0        0        8        0      613      420      432      446      446      444      444      444      444
        3        3        3        3        0        0        0        0        8        0      614      293      420      446      446      444      444      444      444
        3        3        3        3        0        0        0        0        8        0      615      292      446      293      293      420      420      420      420
        3        3        3        3        0        0        0        0        8        0      616      324      325      446      446      420      420      420      420
        3        3        3        3        0        0        0        0        8        0      617      324      350      446      446      325      325      325      325
        3        3        3        3        0        0        0        0        8        0      618      292      299      298      298      446      446      446      446
        3        3        3        3        0        0        0        0        8        0      619      298      350      446      446      299      299      299      299
        3        3        3        3        0        0        0        0        8        0      620      299      350      446      446      324      324      324      324
        3        3        3        3        0        0        0        0        8        0      621      291      324      446      446      420      420      420      420
        3        3        3        3        0        0        0        0        8        0      622      291      292      446      446      299      299      299      299
        3        3        3        3        0        0        0        0        8        0      623      291      292      420      420      446      446      446      446
        3        3        3        3        0        0        0        0        8        0      624      329      423      431      431      445      445      445      445
        3        3        3        3        0        0        0        0        8        0      625      415      423      445      445      431      431      431      431
        3        3        3        3        0        0        0        0        8        0      626      328      445      329      329      346      346      346      346
        3        3        3        3        0        0        0        0        8        0      627      328      445      423      423      329      329      329      329
        3        3        3        3        0        0        0        0        8        0      628      326      445      432      432      414      414      414      414
        3        3        3        3        0        0        0        0        8        0      629      326      327      445      445      414      414      414      414
! ... 334 like lines cut
! Material Id = {6C4F2C9F-937E-4F95-AFE9-C4F5945E4210}
/wb,elem,end               !  done creating elements
/com,*********** Send User Defined Coordinate System(s) ***********
csys,0
toffst,273.15,      ! Temperature offset from absolute zero
/com,*********** Set Reference Temperature ***********
tref,22.
/wb,mat,start              !  starting to send materials
/com,*********** Send Materials ***********

TB,PRONY,1,1,6,BULK
TBTEMP,869
TBDATA,1,0.0222,5.009e-05,0.0224,0.0009945,0.0286,0.002022
TBDATA,7,0.2137,0.01925,0.394,0.1199,0.3191,2.033

TB,PRONY,1,1,6,SHEAR
TBTEMP,595.85
TBDATA,1,0.05523,6.658e-05,0.08205,0.001197,0.1215,0.01514
TBDATA,7,0.2286,0.1672,0.286,0.7497,0.22662,3.292
MP,DENS,1,2.74e-09,	! tonne mm^-3
MP,EX,1,70000,	! tonne s^-2 mm^-1
MP,NUXY,1,0.22,
MP,UVID,1,97a6bb41-32eb-488c-bbc2-9600d081f55b

Temperature = 'TEMP' ! Temperature
MP,DENS,2,4.62e-09,	! tonne mm^-3
MP,ALPX,2,9.4e-06,	! C^-1
MP,C,2,522000000,	! mm^2 s^-2 C^-1
MP,KXX,2,21.9,	! tonne mm s^-3 C^-1
MP,RSVX,2,0.0017,	! ohm mm
MP,EX,2,96000,	! tonne s^-2 mm^-1
MP,NUXY,2,0.36,
MP,MURX,2,1,
MP,UVID,2,283b7a77-d900-47ec-82e2-79ef1753b86c
MP,UMID,2,c4cc4a57-3226-45fe-b3f8-5a83eb845bd6

Temperature = 'TEMP' ! Temperature
MP,DENS,3,4.62e-09,	! tonne mm^-3
MP,ALPX,3,9.4e-06,	! C^-1
MP,C,3,522000000,	! mm^2 s^-2 C^-1
MP,KXX,3,21.9,	! tonne mm s^-3 C^-1
MP,RSVX,3,0.0017,	! ohm mm
MP,EX,3,96000,	! tonne s^-2 mm^-1
MP,NUXY,3,0.36,
MP,MURX,3,1,
MP,UVID,3,283b7a77-d900-47ec-82e2-79ef1753b86c
MP,UMID,3,c4cc4a57-3226-45fe-b3f8-5a83eb845bd6

/wb,mat,end                !  done sending materials
!************************* Model Summary ********************
!Plate,	VISCO,	matid,	1
!Lower Die,	Titanium Alloy,	matid,	2
!Upper Die,	Titanium Alloy,	matid,	3
!************************* End Model Summary ********************
! get the diagonal of the bounding box. Needed later for other things
*get,_xmin,node,,mnloc,x
*get,_ymin,node,,mnloc,y
*get,_zmin,node,,mnloc,z
*get,_xmax,node,,mxloc,x
*get,_ymax,node,,mxloc,y
*get,_zmax,node,,mxloc,z
_ASMDIAG=(_xmax-_xmin)*(_xmax-_xmin)+(_ymax-_ymin)*(_ymax-_ymin)+(_zmax-_zmin)*(_zmax-_zmin)
_ASMDIAG=SQRT(_ASMDIAG)
/wb,contact,start          !  starting to send contact
/com,*********** Create Contact "Frictional - No Selection To No Selection" ***********
/com,            Real Constant Set For Above Contact Is 5 & 4 
*set,tid,5
*set,cid,4
r,tid
r,cid
et,tid,170
et,cid,174
eblock,10,,,69
(15i9)
     1809        5        5        5        0       30       31       93       93
     1810        5        5        5        0       29       30       93       93
     1811        5        5        5        0       71       94       72       72
     1812        5        5        5        0       72       94       75       75
     1813        5        5        5        0       75       94       76       76
     1814        5        5        5        0       70       94       71       71
     1815        5        5        5        0       79       95       80       80
     1816        5        5        5        0       78       95       79       79
     1817        5        5        5        0       74       85       86       86
     1818        5        5        5        0       26       27       91       91
     1819        5        5        5        0       33       34       90       90
     1820        5        5        5        0       20       89       36       36
     1821        5        5        5        0        2       21       68       68
     1822        5        5        5        0       72       75       73       73
     1823        5        5        5        0       92      100       94       94
     1824        5        5        5        0       96       98      102      102
     1825        5        5        5        0       91      101       95       95
     1826        5        5        5        0       91       95      100      100
     1827        5        5        5        0       67       73       75       75
     1828        5        5        5        0       91      100       92       92
! ... 50 like lines cut
eblock,10,,,69
(15i9)
     1878        4        4        4        0       30       31       93       93
     1879        4        4        4        0       29       30       93       93
     1880        4        4        4        0       71       94       72       72
     1881        4        4        4        0       72       94       75       75
     1882        4        4        4        0       75       94       76       76
     1883        4        4        4        0       70       94       71       71
     1884        4        4        4        0       79       95       80       80
     1885        4        4        4        0       78       95       79       79
     1886        4        4        4        0       74       85       86       86
     1887        4        4        4        0       26       27       91       91
     1888        4        4        4        0       33       34       90       90
     1889        4        4        4        0       20       89       36       36
     1890        4        4        4        0        2       21       68       68
     1891        4        4        4        0       72       75       73       73
     1892        4        4        4        0       92      100       94       94
     1893        4        4        4        0       96       98      102      102
     1894        4        4        4        0       91      101       95       95
     1895        4        4        4        0       91       95      100      100
     1896        4        4        4        0       67       73       75       75
     1897        4        4        4        0       91      100       92       92
! ... 50 like lines cut
eblock,10,,,146
(15i9)
     1947        4        5        4        0      303      304      418      418
     1948        4        5        4        0      323      374      331      331
     1949        4        5        4        0      371      416      372      372
     1950        4        5        4        0      305      417      418      418
     1951        4        5        4        0      304      305      418      418
     1952        4        5        4        0      305      306      417      417
     1953        4        5        4        0      417      415      418      418
     1954        4        5        4        0      306      307      417      417
     1955        4        5        4        0      416      421      418      418
     1956        4        5        4        0      300      301      369      369
     1957        4        5        4        0      326      327      414      414
     1958        4        5        4        0      415      423      419      419
     1959        4        5        4        0      325      326      414      414
     1960        4        5        4        0      372      416      419      419
     1961        4        5        4        0      372      419      373      373
     1962        4        5        4        0      290      296      308      308
     1963        4        5        4        0      417      422      420      420
     1964        4        5        4        0      414      423      415      415
     1965        4        5        4        0      289      324      291      291
     1966        4        5        4        0      415      419      416      416
! ... 127 like lines cut
eblock,10,,,146
(15i9)
     2093        5        4        5        0      303      304      418      418
     2094        5        4        5        0      323      374      331      331
     2095        5        4        5        0      371      416      372      372
     2096        5        4        5        0      305      417      418      418
     2097        5        4        5        0      304      305      418      418
     2098        5        4        5        0      305      306      417      417
     2099        5        4        5        0      417      415      418      418
     2100        5        4        5        0      306      307      417      417
     2101        5        4        5        0      416      421      418      418
     2102        5        4        5        0      300      301      369      369
     2103        5        4        5        0      326      327      414      414
     2104        5        4        5        0      415      423      419      419
     2105        5        4        5        0      325      326      414      414
     2106        5        4        5        0      372      416      419      419
     2107        5        4        5        0      372      419      373      373
     2108        5        4        5        0      290      296      308      308
     2109        5        4        5        0      417      422      420      420
     2110        5        4        5        0      414      423      415      415
     2111        5        4        5        0      289      324      291      291
     2112        5        4        5        0      415      419      416      416
! ... 127 like lines cut
keyo,cid,8,2               ! auto create asymmetric contact (from Program Controlled setting)
keyo,cid,10,0              ! adjust contact stiffness each NR iteration (from Program Controlled setting)
keyo,cid,12,0              ! standard contact
mp,mu,cid,0.2       ! unitless
keyo,cid,2,0               ! augmented Lagrange (from Program Controlled setting)
keyo,cid,4,0               ! on Gauss point (from Program Controlled setting)
keyo,cid,9,0               ! use real geometry with stepped effects
keyo,cid,7,0               ! No Prediction
rmod,tid,3,1.       ! FKN
rmod,tid,5,0.       ! ICONT
rmod,tid,6,0.       ! PINB
rmod,tid,10,0.      ! CNOF
rmod,tid,12,0.      ! FKT
rmod,tid,36,40      ! WB DSID
rmod,cid,3,1.       ! FKN
rmod,cid,5,0.       ! ICONT
rmod,cid,6,0.       ! PINB
rmod,cid,10,0.      ! CNOF
rmod,cid,12,0.      ! FKT
rmod,cid,36,40      ! WB DSID
/com,*********** Create Contact "Frictional - No Selection To No Selection" ***********
/com,            Real Constant Set For Above Contact Is 7 & 6 
*set,tid,7
*set,cid,6
r,tid
r,cid
et,tid,170
et,cid,174
eblock,10,,,108
(15i9)
     2239        7        7        7        0      107      129      124      124
     2240        7        7        7        0      108      110      134      134
     2241        7        7        7        0      113      120      130      130
     2242        7        7        7        0      122      126      125      125
     2243        7        7        7        0      106      115      118      118
     2244        7        7        7        0      107      115      129      129
     2245        7        7        7        0      109      114      126      126
     2246        7        7        7        0      108      118      115      115
     2247        7        7        7        0      107      124      113      113
     2248        7        7        7        0      106      128      115      115
     2249        7        7        7        0      114      125      126      126
     2250        7        7        7        0      115      128      129      129
     2251        7        7        7        0      106      127      128      128
     2252        7        7        7        0      106      114      127      127
     2253        7        7        7        0      106      125      114      114
     2254        7        7        7        0      113      124      120      120
     2255        7        7        7        0      112      123      121      121
     2256        7        7        7        0      106      118      125      125
     2257        7        7        7        0      105      109      126      126
     2258        7        7        7        0      111      118      119      119
! ... 89 like lines cut
eblock,10,,,108
(15i9)
     2347        6        6        6        0      107      129      124      124
     2348        6        6        6        0      108      110      134      134
     2349        6        6        6        0      113      120      130      130
     2350        6        6        6        0      122      126      125      125
     2351        6        6        6        0      106      115      118      118
     2352        6        6        6        0      107      115      129      129
     2353        6        6        6        0      109      114      126      126
     2354        6        6        6        0      108      118      115      115
     2355        6        6        6        0      107      124      113      113
     2356        6        6        6        0      106      128      115      115
     2357        6        6        6        0      114      125      126      126
     2358        6        6        6        0      115      128      129      129
     2359        6        6        6        0      106      127      128      128
     2360        6        6        6        0      106      114      127      127
     2361        6        6        6        0      106      125      114      114
     2362        6        6        6        0      113      124      120      120
     2363        6        6        6        0      112      123      121      121
     2364        6        6        6        0      106      118      125      125
     2365        6        6        6        0      105      109      126      126
     2366        6        6        6        0      111      118      119      119
! ... 89 like lines cut
eblock,10,,,80
(15i9)
     2455        6        7        6        0      222      241      223      223
     2456        6        7        6        0      225      244      226      226
     2457        6        7        6        0      213      222      214      214
     2458        6        7        6        0      240      241      222      222
     2459        6        7        6        0      243      244      225      225
     2460        6        7        6        0      242      225      224      224
     2461        6        7        6        0      242      224      241      241
     2462        6        7        6        0      243      225      242      242
     2463        6        7        6        0      241      224      223      223
     2464        6        7        6        0      240      222      213      213
     2465        6        7        6        0      244      227      226      226
     2466        6        7        6        0      245      227      244      244
     2467        6        7        6        0      245      163      227      227
     2468        6        7        6        0      227      163      161      161
     2469        6        7        6        0      263      268      266      266
     2470        6        7        6        0      193      216      194      194
     2471        6        7        6        0      218      262      265      265
     2472        6        7        6        0      263      261      264      264
     2473        6        7        6        0      155      156      264      264
     2474        6        7        6        0      137      143      160      160
! ... 61 like lines cut
eblock,10,,,80
(15i9)
     2535        7        6        7        0      222      241      223      223
     2536        7        6        7        0      225      244      226      226
     2537        7        6        7        0      213      222      214      214
     2538        7        6        7        0      240      241      222      222
     2539        7        6        7        0      243      244      225      225
     2540        7        6        7        0      242      225      224      224
     2541        7        6        7        0      242      224      241      241
     2542        7        6        7        0      243      225      242      242
     2543        7        6        7        0      241      224      223      223
     2544        7        6        7        0      240      222      213      213
     2545        7        6        7        0      244      227      226      226
     2546        7        6        7        0      245      227      244      244
     2547        7        6        7        0      245      163      227      227
     2548        7        6        7        0      227      163      161      161
     2549        7        6        7        0      263      268      266      266
     2550        7        6        7        0      193      216      194      194
     2551        7        6        7        0      218      262      265      265
     2552        7        6        7        0      263      261      264      264
     2553        7        6        7        0      155      156      264      264
     2554        7        6        7        0      137      143      160      160
! ... 61 like lines cut
keyo,cid,8,2               ! auto create asymmetric contact (from Program Controlled setting)
keyo,cid,10,0              ! adjust contact stiffness each NR iteration (from Program Controlled setting)
keyo,cid,12,0              ! standard contact
mp,mu,cid,0.2       ! unitless
keyo,cid,2,0               ! augmented Lagrange (from Program Controlled setting)
keyo,cid,4,0               ! on Gauss point (from Program Controlled setting)
keyo,cid,9,0               ! use real geometry with stepped effects
keyo,cid,7,0               ! No Prediction
rmod,tid,3,1.       ! FKN
rmod,tid,5,0.       ! ICONT
rmod,tid,6,0.       ! PINB
rmod,tid,10,0.      ! CNOF
rmod,tid,12,0.      ! FKT
rmod,tid,36,43      ! WB DSID
rmod,cid,3,1.       ! FKN
rmod,cid,5,0.       ! ICONT
rmod,cid,6,0.       ! PINB
rmod,cid,10,0.      ! CNOF
rmod,cid,12,0.      ! FKT
rmod,cid,36,43      ! WB DSID
/com,*********** Create Contact "Contact Region 5" ***********
/com,            Real Constant Set For Above Contact Is 9 & 8 
*set,tid,9
*set,cid,8
r,tid
r,cid
et,tid,170
et,cid,174
eblock,10,,,60
(15i9)
     2615        9        9        9        0      107      129      124      124
     2616        9        9        9        0      108      110      134      134
     2617        9        9        9        0      113      120      130      130
     2618        9        9        9        0      106      115      118      118
     2619        9        9        9        0      107      115      129      129
     2620        9        9        9        0      108      118      115      115
     2621        9        9        9        0      107      124      113      113
     2622        9        9        9        0      106      128      115      115
     2623        9        9        9        0      115      128      129      129
     2624        9        9        9        0      106      127      128      128
     2625        9        9        9        0      106      114      127      127
     2626        9        9        9        0      106      125      114      114
     2627        9        9        9        0      113      124      120      120
     2628        9        9        9        0      106      118      125      125
     2629        9        9        9        0      111      118      119      119
     2630        9        9        9        0      108      119      118      118
     2631        9        9        9        0      110      113      116      116
     2632        9        9        9        0      107      113      110      110
     2633        9        9        9        0      113      130      116      116
     2634        9        9        9        0      111      125      118      118
! ... 41 like lines cut
eblock,10,,,60
(15i9)
     2675        8        8        8        0      107      129      124      124
     2676        8        8        8        0      108      110      134      134
     2677        8        8        8        0      113      120      130      130
     2678        8        8        8        0      106      115      118      118
     2679        8        8        8        0      107      115      129      129
     2680        8        8        8        0      108      118      115      115
     2681        8        8        8        0      107      124      113      113
     2682        8        8        8        0      106      128      115      115
     2683        8        8        8        0      115      128      129      129
     2684        8        8        8        0      106      127      128      128
     2685        8        8        8        0      106      114      127      127
     2686        8        8        8        0      106      125      114      114
     2687        8        8        8        0      113      124      120      120
     2688        8        8        8        0      106      118      125      125
     2689        8        8        8        0      111      118      119      119
     2690        8        8        8        0      108      119      118      118
     2691        8        8        8        0      110      113      116      116
     2692        8        8        8        0      107      113      110      110
     2693        8        8        8        0      113      130      116      116
     2694        8        8        8        0      111      125      118      118
! ... 41 like lines cut
eblock,10,,,66
(15i9)
     2735        8        9        8        0      229      251      230      230
     2736        8        9        8        0      248      251      259      259
     2737        8        9        8        0      250      253      258      258
     2738        8        9        8        0      164      239      172      172
     2739        8        9        8        0      166      167      251      251
     2740        8        9        8        0      166      251      228      228
     2741        8        9        8        0      248      257      252      252
     2742        8        9        8        0      248      259      257      257
     2743        8        9        8        0      250      256      251      251
     2744        8        9        8        0      167      168      251      251
     2745        8        9        8        0      250      258      256      256
     2746        8        9        8        0      204      233      206      206
     2747        8        9        8        0      248      250      251      251
     2748        8        9        8        0      165      166      228      228
     2749        8        9        8        0      249      255      254      254
     2750        8        9        8        0      249      252      255      255
     2751        8        9        8        0      228      251      229      229
     2752        8        9        8        0      249      253      250      250
     2753        8        9        8        0      205      212      234      234
     2754        8        9        8        0      248      249      250      250
! ... 47 like lines cut
eblock,10,,,66
(15i9)
     2801        9        8        9        0      229      251      230      230
     2802        9        8        9        0      248      251      259      259
     2803        9        8        9        0      250      253      258      258
     2804        9        8        9        0      164      239      172      172
     2805        9        8        9        0      166      167      251      251
     2806        9        8        9        0      166      251      228      228
     2807        9        8        9        0      248      257      252      252
     2808        9        8        9        0      248      259      257      257
     2809        9        8        9        0      250      256      251      251
     2810        9        8        9        0      167      168      251      251
     2811        9        8        9        0      250      258      256      256
     2812        9        8        9        0      204      233      206      206
     2813        9        8        9        0      248      250      251      251
     2814        9        8        9        0      165      166      228      228
     2815        9        8        9        0      249      255      254      254
     2816        9        8        9        0      249      252      255      255
     2817        9        8        9        0      228      251      229      229
     2818        9        8        9        0      249      253      250      250
     2819        9        8        9        0      205      212      234      234
     2820        9        8        9        0      248      249      250      250
! ... 47 like lines cut
keyo,cid,8,2               ! auto create asymmetric contact (from Program Controlled setting)
keyo,cid,10,0              ! adjust contact stiffness each NR iteration (from Program Controlled setting)
keyo,cid,12,5              ! bonded always
keyo,cid,18,1              ! small sliding turned on by application
keyo,cid,2,0               ! augmented Lagrange (from Program Controlled setting)
keyo,cid,4,0               ! on Gauss point (from Program Controlled setting)
keyo,cid,9,1               ! ignore initial gaps/penetration
keyo,cid,7,0               ! No Prediction
rmod,tid,3,1.       ! FKN
rmod,tid,5,0.       ! ICONT
rmod,tid,6,0.       ! PINB
rmod,tid,10,0.      ! CNOF
rmod,tid,12,0.      ! FKT
rmod,tid,36,20446   ! WB DSID
rmod,cid,3,1.       ! FKN
rmod,cid,5,0.       ! ICONT
rmod,cid,6,0.       ! PINB
rmod,cid,10,0.      ! CNOF
rmod,cid,12,0.      ! FKT
rmod,cid,36,20446   ! WB DSID
nsel,all
esel,all
/wb,contact,end            !  done creating contacts
/golist
/wb,load,start             !  starting to send loads
/com,*********** Fixed Supports ***********
CMBLOCK,_FIXEDSU,NODE,       72
(8i10)
       136       137       144       145       152       153       154       155
       156       157       158       159       160       161       162       163
       164       165       166       167       168       169       170       171
       172       173       174       175       176       177       178       179
       180       181       182       183       184       185       186       187
       188       189       190       191       192       193       194       195
       196       197       198       199       200       201       202       203
       204       205       206       207       208       209       210       211
       212       213       214       215       246       247       276       279

cmsel,s,_FIXEDSU
d,all,all
nsel,all
/com,******* Constant Zero Displacement X *******
CMBLOCK,_DISPZEROUX,NODE,       61
(8i10)
       289       290       291       292       293       294       295       296
       297       298       299       312       313       314       315       316
       317       318       319       320       321       332       351       352
       353       354       355       356       357       358       359       363
       364       365       366       367       368       387       388       389
       390       391       392       393       394       395       396       397
       398       402       403       404       405       406       407       408
       409       410       411       412       413
cmsel,s,_DISPZEROUX
d,all,ux,0
nsel,all
/com,******* Constant Zero Displacement Z *******
CMBLOCK,_DISPZEROUZ,NODE,       42
(8i10)
       312       313       314       315       316       317       318       319
       320       351       352       353       354       355       356       357
       358       359       387       388       389       390       391       392
       393       394       395       396       397       398       402       403
       404       405       406       407       408       409       410       411
       412       413
cmsel,s,_DISPZEROUZ
d,all,uz,0
nsel,all
/com,*********** Create Displacement Tables and Functions ******

*DIM,_loadvari76yp,TABLE,5,1,1,TIME, , , 0
! Time values
*TAXIS,_loadvari76yp(1),1,0.,0.5,5.,10.,15.
! Load values
_loadvari76yp(1,1,1) = 0.
_loadvari76yp(2,1,1) = 0.
_loadvari76yp(3,1,1) = -25.
_loadvari76yp(4,1,1) = -25.
_loadvari76yp(5,1,1) = 0.



*DIM,_loadvari76yn,TABLE,5,1,1,TIME, , , 0
! Time values
*TAXIS,_loadvari76yn(1),1,0.,0.5,5.,10.,15.
! Load values
_loadvari76yn(1,1,1) = 0.
_loadvari76yn(2,1,1) = 0.
_loadvari76yn(3,1,1) = 25.
_loadvari76yn(4,1,1) = 25.
_loadvari76yn(5,1,1) = 0.


/gst,on,on
fini
*get,_numnode,node,0,count
*get,_numelem,elem,0,count
*get, _MAXELEMNUM, elem, 0, NUM, MAX
*get, _MAXNODENUM, node, 0, NUM, MAX
*get, _MAXELEMTYPE, etyp, 0, NUM, MAX
*get, _MAXREALCONST, rcon, 0, NUM, MAX
/go
/wb,load,end               !  done creating loads
/com,--- Number of total nodes = %_numnode%
/com,--- Number of contact elements = 1058
/com,--- Number of spring elements = 0
/com,--- Number of bearing elements = 0
/com,--- Number of solid elements = 962
/com,--- Number of condensed parts = 0
/com,--- Number of total elements = %_numelem%
*get,_wallbsol,active,,time,wall
/com,****************************************************************************
/com,*************************    SOLUTION       ********************************
/com,****************************************************************************
/solu
antype,4                   ! transient analysis type for quasi static solution
nlgeom,on                  ! Turn on Large Deformation Effects
_thickRatio=  0     ! Ratio of thick parts in the model
eqsl,sparse,,,,,1
nropt,full                 ! Use full Newton-Raphson
cntr,print,1               ! print out contact info and also make no initial contact an error
tintp,quas				   ! Backward Euler Time Integration for quasi static solution 
trnopt,,,,,,,,,yes        ! Enable numerical damping for quasi static solution
nldiag,cont,iter           ! print out contact info each equilibrium iteration
rescontrol,define,last,last,,dele	   ! Program Controlled
/com,****************************************************
/com,******************* SOLVE FOR LS 1 OF 3 ****************
/com,*** Set Displacements ***
CMBLOCK,_CM76UY_YP,NODE,       42
(8i10)
       312       313       314       315       316       317       318       319
       320       351       352       353       354       355       356       357
       358       359       387       388       389       390       391       392
       393       394       395       396       397       398       402       403
       404       405       406       407       408       409       410       411
       412       413
cmsel,s,_CM76UY_YP
d,all,uy,%_loadvari76yp%
nsel,all

/com,*** Component For All Non-Zero UY Displacements ***
cmsel,s,_CM76uy_yp
cm,_DISPNONZEROUY,NODE
nsel,all

/nopr
/gopr
autots,off                 ! User turned off automatic time stepping
deltim,3.75e-002,3.75e-002,3.75e-002
time,5.
outres,erase
outres,all,none
outres,nsol,all,
outres,rsol,all
outres,eangl,all
outres,etmp,all
outres,veng,all
outres,strs,all,
outres,epel,all,
outres,eppl,all,
outres,cont,all,
! *********** WB SOLVE COMMAND ***********
! check interactive state
*get,ANSINTER_,active,,int
*if,ANSINTER_,ne,0,then
/eof
*endif
solve
/com *************** Write FE CONNECTORS ********* 
CEWRITE,file,ce,,INTE
/com,****************************************************
/com,*************** FINISHED SOLVE FOR LS 1 *************
/com,****************************************************
/com,******************* SOLVE FOR LS 2 OF 3 ****************
/com,*** Set Displacements ***
/nopr
/gopr
autots,off                 ! User turned off automatic time stepping
deltim,3.75e-002,3.75e-002,3.75e-002
time,10.
outres,erase
outres,all,none
outres,nsol,all,
outres,rsol,all
outres,eangl,all
outres,etmp,all
outres,veng,all
outres,strs,all,
outres,epel,all,
outres,eppl,all,
outres,cont,all,
solve
/com,****************************************************
/com,*************** FINISHED SOLVE FOR LS 2 *************
/com,****************************************************
/com,******************* SOLVE FOR LS 3 OF 3 ****************
/com,*** Set Displacements ***
/nopr
/gopr
autots,off                 ! User turned off automatic time stepping
deltim,3.75e-002,3.75e-002,3.75e-002
time,15.
outres,erase
outres,all,none
outres,nsol,all,
outres,rsol,all
outres,eangl,all
outres,etmp,all
outres,veng,all
outres,strs,all,
outres,epel,all,
outres,eppl,all,
outres,cont,all,
solve
/com,****************************************************
/com,*************** FINISHED SOLVE FOR LS 3 *************
*get,_wallasol,active,,time,wall
/nopr
*get,_numnode,node,0,count
*get,_numelem,elem,0,count
*get, _MAXELEMNUM, elem, 0, NUM, MAX
*get, _MAXNODENUM, node, 0, NUM, MAX,,,INTERNAL
*get, _MAXELEMTYPE, etyp, 0, NUM, MAX
*get, _MAXREALCONST, rcon, 0, NUM, MAX
*get,_NSOLTHREADS,active,0,ntfs
*get,_NSOLPROCESSES,active,0,npfs
/gopr
/post1
xmlo,ENCODING,ISO-8859-1
xmlo,parm
/xml,parm,xml
fini
/gopr
*get,_walldone,active,,time,wall
_preptime=(_wallbsol-_wallstrt)*3600
_solvtime=(_wallasol-_wallbsol)*3600
_posttime=(_walldone-_wallasol)*3600
_totaltim=(_walldone-_wallstrt)*3600
*get,_dlbratio,active,0,solu,dlbr
*get,_combtime,active,0,solu,comb
*get,_ssmode,active,0,solu,ssmm
*get,_ndofs,active,0,solu,ndof
/com,--- Total number of nodes = %_numnode%
/com,--- Total number of elements = %_numelem%
/com,--- Element load balance ratio = %_dlbratio%
/com,--- Time to combine distributed files = %_combtime%
/com,--- Sparse memory mode = %_ssmode%
/com,--- Number of DOF = %_ndofs%
/wb,file,end               ! done with WB generated input
