/batch
/config,noeldb,1     ! force off writing results to database
*get,_wallstrt,active,,time,wall
! ANSYS input file written by Workbench version 2024 R2
! File used for geometry attach: D:\OJT\testing_files\dp0\Geom-2\DM\Geom-2.scdoc
/title,testing--Static Structural (C5)
! ****** Begin Custom Load Command Snippet ******
/COM, ACT Extensions:
/COM,     LSDYNA, 2024.2
/COM,     5f463412-bd3e-484b-87e7-cbc0a665e474, wbex
/COM,/COM,     ANSYSMotion, 2024.2
/COM,     20180725-3f81-49eb-9f31-41364844c769, wbex
/COM,
! ****** End   Custom Load Command Snippet ******
*DIM,_wb_ProjectScratch_dir,string,248
_wb_ProjectScratch_dir(1) = 'D:\OJT\testing_files\dp0\SYS-4\MECH\'
*DIM,_wb_SolverFiles_dir,string,248
_wb_SolverFiles_dir(1) = 'D:\OJT\testing_files\dp0\SYS-4\MECH\'
*DIM,_wb_userfiles_dir,string,248
_wb_userfiles_dir(1) = 'D:\OJT\testing_files\user_files\'
/com,--- Data in consistent NMM units. See Solving Units in the help system for more information.
/units,MPA
/nopr
/wb,file,start              !  signify a WB generated input file
/prep7
! Turn off shape checking because checks already performed inside WB mesher.
! See help system for more information.
SHPP,OFF,,NOWARN
/nolist
etcon,set             ! allow ANSYS to choose best KEYOP's for 180x elements, resets any applicable keyopt to MAPDL defaults
/com,*********** Nodes for the whole assembly ***********
nblock,3,,521
(1i9,3e20.9e3)
        1     0.000000000E+00     0.000000000E+00    -1.250000000E+02
        2     0.000000000E+00     1.000000000E+01    -1.250000000E+02
        3    -3.000000000E+02     0.000000000E+00    -1.250000000E+02
        4    -2.823529412E+02     0.000000000E+00    -1.250000000E+02
        5    -2.647058824E+02     0.000000000E+00    -1.250000000E+02
        6    -2.470588235E+02     0.000000000E+00    -1.250000000E+02
        7    -2.294117647E+02     0.000000000E+00    -1.250000000E+02
        8    -2.117647059E+02     0.000000000E+00    -1.250000000E+02
        9    -1.941176471E+02     0.000000000E+00    -1.250000000E+02
       10    -1.764705882E+02     0.000000000E+00    -1.250000000E+02
       11    -1.588235294E+02     0.000000000E+00    -1.250000000E+02
       12    -1.411764706E+02     0.000000000E+00    -1.250000000E+02
       13    -1.235294118E+02     0.000000000E+00    -1.250000000E+02
       14    -1.058823529E+02     0.000000000E+00    -1.250000000E+02
       15    -8.823529412E+01     0.000000000E+00    -1.250000000E+02
       16    -7.058823529E+01     0.000000000E+00    -1.250000000E+02
       17    -5.294117647E+01     0.000000000E+00    -1.250000000E+02
       18    -3.529411765E+01     0.000000000E+00    -1.250000000E+02
       19    -1.764705882E+01     0.000000000E+00    -1.250000000E+02
       20    -3.000000000E+02     1.000000000E+01    -1.250000000E+02
! ... 455 like lines cut
/wb,elem,start            !  set before creation of elements
/com,*********** Elements for Body 1 'Plate' ***********
et,1,185
eblock,19,solid,,265
(19i9)
        1        1        1        1        0        0        0        0        8        0        1       96      112      105      105      123      123      123      123
        1        1        1        1        0        0        0        0        8        0        2       96      123       99       99      112      112      112      112
        1        1        1        1        0        0        0        0        8        0        3       96      132      123      123      105      105      105      105
        1        1        1        1        0        0        0        0        8        0        4       90      105       96       96      112      112      112      112
        1        1        1        1        0        0        0        0        8        0        5       90      112       96       96       99       99       99       99
        1        1        1        1        0        0        0        0        8        0        6       99      121      112      112      123      123      123      123
        1        1        1        1        0        0        0        0        8        0        7       84       99       96       96      123      123      123      123
        1        1        1        1        0        0        0        0        8        0        8       96      132      105      105      122      122      122      122
        1        1        1        1        0        0        0        0        8        0        9       83       96      132      132      123      123      123      123
        1        1        1        1        0        0        0        0        8        0       10       90      109      105      105      112      112      112      112
        1        1        1        1        0        0        0        0        8        0       11       90      112       99       99      117      117      117      117
        1        1        1        1        0        0        0        0        8        0       12       84      121       99       99      123      123      123      123
        1        1        1        1        0        0        0        0        8        0       13       99      131      112      112      121      121      121      121
        1        1        1        1        0        0        0        0        8        0       14       83       96      123      123       84       84       84       84
        1        1        1        1        0        0        0        0        8        0       15       96      105      126      126      122      122      122      122
        1        1        1        1        0        0        0        0        8        0       16       96       98      132      132      122      122      122      122
        1        1        1        1        0        0        0        0        8        0       17       56      123       83       83      132      132      132      132
        1        1        1        1        0        0        0        0        8        0       18       82       96      132      132       83       83       83       83
        1        1        1        1        0        0        0        0        8        0       19       90      112      117      117      109      109      109      109
        1        1        1        1        0        0        0        0        8        0       20       90      109      126      126      105      105      105      105
! ... 246 like lines cut
! Material Id = {74FCC8DB-7E2C-4D34-B0BF-59E91014FE43}
/com,*********** Elements for Body 2 'Lower Die' ***********
et,2,185
eblock,19,solid,,386
(19i9)
        2        2        2        2        0        0        0        0        8        0      266      143      302      144      144      299      299      299      299
        2        2        2        2        0        0        0        0        8        0      267      143      150      144      144      302      302      302      302
        2        2        2        2        0        0        0        0        8        0      268      144      302      149      149      299      299      299      299
        2        2        2        2        0        0        0        0        8        0      269      144      150      149      149      302      302      302      302
        2        2        2        2        0        0        0        0        8        0      270      266      302      297      297      293      293      293      293
        2        2        2        2        0        0        0        0        8        0      271      141      297      302      302      293      293      293      293
        2        2        2        2        0        0        0        0        8        0      272      152      266      302      302      297      297      297      297
        2        2        2        2        0        0        0        0        8        0      273      141      152      302      302      297      297      297      297
        2        2        2        2        0        0        0        0        8        0      274      143      151      150      150      302      302      302      302
        2        2        2        2        0        0        0        0        8        0      275      149      302      266      266      299      299      299      299
        2        2        2        2        0        0        0        0        8        0      276      149      266      302      302      150      150      150      150
        2        2        2        2        0        0        0        0        8        0      277      266      299      302      302      293      293      293      293
        2        2        2        2        0        0        0        0        8        0      278      141      152      142      142      302      302      302      302
        2        2        2        2        0        0        0        0        8        0      279      142      302      143      143      299      299      299      299
        2        2        2        2        0        0        0        0        8        0      280      142      302      151      151      143      143      143      143
        2        2        2        2        0        0        0        0        8        0      281      150      151      266      266      302      302      302      302
        2        2        2        2        0        0        0        0        8        0      282      141      302      142      142      299      299      299      299
        2        2        2        2        0        0        0        0        8        0      283      151      266      302      302      152      152      152      152
        2        2        2        2        0        0        0        0        8        0      284      142      151      302      302      152      152      152      152
        2        2        2        2        0        0        0        0        8        0      285      206      249      301      301      291      291      291      291
! ... 367 like lines cut
! Material Id = {A3093036-FF09-4E71-B329-10478565D830}
/com,*********** Elements for Body 3 'Upper Die' ***********
et,3,185
eblock,19,solid,,400
(19i9)
        3        3        3        3        0        0        0        0        8        0      652      343      467      474      474      437      437      437      437
        3        3        3        3        0        0        0        0        8        0      653      343      385      474      474      467      467      467      467
        3        3        3        3        0        0        0        0        8        0      654      343      474      344      344      437      437      437      437
        3        3        3        3        0        0        0        0        8        0      655      343      474      385      385      344      344      344      344
        3        3        3        3        0        0        0        0        8        0      656      385      457      474      474      467      467      467      467
        3        3        3        3        0        0        0        0        8        0      657      437      474      457      457      467      467      467      467
        3        3        3        3        0        0        0        0        8        0      658      344      386      474      474      385      385      385      385
        3        3        3        3        0        0        0        0        8        0      659      385      457      386      386      474      474      474      474
        3        3        3        3        0        0        0        0        8        0      660      344      474      345      345      437      437      437      437
        3        3        3        3        0        0        0        0        8        0      661      344      474      386      386      345      345      345      345
        3        3        3        3        0        0        0        0        8        0      662      345      474      387      387      451      451      451      451
        3        3        3        3        0        0        0        0        8        0      663      345      386      387      387      474      474      474      474
        3        3        3        3        0        0        0        0        8        0      664      437      457      474      474      469      469      469      469
        3        3        3        3        0        0        0        0        8        0      665      387      451      474      474      469      469      469      469
        3        3        3        3        0        0        0        0        8        0      666      345      474      451      451      437      437      437      437
        3        3        3        3        0        0        0        0        8        0      667      437      474      451      451      469      469      469      469
        3        3        3        3        0        0        0        0        8        0      668      440      473      455      455      472      472      472      472
        3        3        3        3        0        0        0        0        8        0      669      440      455      473      473      442      442      442      442
        3        3        3        3        0        0        0        0        8        0      670      340      473      382      382      341      341      341      341
        3        3        3        3        0        0        0        0        8        0      671      340      473      456      456      382      382      382      382
! ... 381 like lines cut
! Material Id = {6C4F2C9F-937E-4F95-AFE9-C4F5945E4210}
/wb,elem,end               !  done creating elements
/com,*********** Send User Defined Coordinate System(s) ***********
csys,0
toffst,273.15,      ! Temperature offset from absolute zero
/com,*********** Set Reference Temperature ***********
tref,22.
/wb,mat,start              !  starting to send materials
/com,*********** Send Materials ***********

TB,PRONY,1,1,6,BULK
TBTEMP,869
TBDATA,1,0.0222,5.009e-05,0.0224,0.0009945,0.0286,0.002022
TBDATA,7,0.2137,0.01925,0.394,0.1199,0.3191,2.033

TB,PRONY,1,1,6,SHEAR
TBTEMP,595.85
TBDATA,1,0.05523,6.658e-05,0.08205,0.001197,0.1215,0.01514
TBDATA,7,0.2286,0.1672,0.286,0.7497,0.22662,3.292
MP,DENS,1,2.74e-09,	! tonne mm^-3
MP,EX,1,70000,	! tonne s^-2 mm^-1
MP,NUXY,1,0.22,
MP,UVID,1,97a6bb41-32eb-488c-bbc2-9600d081f55b

Temperature = 'TEMP' ! Temperature
MP,DENS,2,4.62e-09,	! tonne mm^-3
MP,ALPX,2,9.4e-06,	! C^-1
MP,C,2,522000000,	! mm^2 s^-2 C^-1
MP,KXX,2,21.9,	! tonne mm s^-3 C^-1
MP,RSVX,2,0.0017,	! ohm mm
MP,EX,2,960000000000000,	! tonne s^-2 mm^-1
MP,NUXY,2,0.36,
MP,MURX,2,1,
MP,UVID,2,4267f603-c4b1-4a72-a44e-f31f2e73019a
MP,UMID,2,ac00e499-a019-415c-a3e1-67bd2d5c2f8c

Temperature = 'TEMP' ! Temperature
MP,DENS,3,4.62e-09,	! tonne mm^-3
MP,ALPX,3,9.4e-06,	! C^-1
MP,C,3,522000000,	! mm^2 s^-2 C^-1
MP,KXX,3,21.9,	! tonne mm s^-3 C^-1
MP,RSVX,3,0.0017,	! ohm mm
MP,EX,3,96000,	! tonne s^-2 mm^-1
MP,NUXY,3,0.36,
MP,MURX,3,1,
MP,UVID,3,283b7a77-d900-47ec-82e2-79ef1753b86c
MP,UMID,3,c4cc4a57-3226-45fe-b3f8-5a83eb845bd6

/wb,mat,end                !  done sending materials
!************************* Model Summary ********************
!Plate,	VISCO,	matid,	1
!Lower Die,	Titanium Alloy_Custom,	matid,	2
!Upper Die,	Titanium Alloy,	matid,	3
!************************* End Model Summary ********************
! get the diagonal of the bounding box. Needed later for other things
*get,_xmin,node,,mnloc,x
*get,_ymin,node,,mnloc,y
*get,_zmin,node,,mnloc,z
*get,_xmax,node,,mxloc,x
*get,_ymax,node,,mxloc,y
*get,_zmax,node,,mxloc,z
_ASMDIAG=(_xmax-_xmin)*(_xmax-_xmin)+(_ymax-_ymin)*(_ymax-_ymin)+(_zmax-_zmin)*(_zmax-_zmin)
_ASMDIAG=SQRT(_ASMDIAG)
/wb,contact,start          !  starting to send contact
/com,*********** Create Contact "Frictional - No Selection To No Selection" ***********
/com,            Real Constant Set For Above Contact Is 5 & 4 
*set,tid,5
*set,cid,4
r,tid
r,cid
et,tid,170
et,cid,174
eblock,10,,,69
(15i9)
     1942        5        5        5        0       30       31       93       93
     1943        5        5        5        0       29       30       93       93
     1944        5        5        5        0       71       94       72       72
     1945        5        5        5        0       72       94       75       75
     1946        5        5        5        0       75       94       76       76
     1947        5        5        5        0       70       94       71       71
     1948        5        5        5        0       79       95       80       80
     1949        5        5        5        0       78       95       79       79
     1950        5        5        5        0       74       85       86       86
     1951        5        5        5        0       26       27       91       91
     1952        5        5        5        0       33       34       90       90
     1953        5        5        5        0       20       89       36       36
     1954        5        5        5        0        2       21       68       68
     1955        5        5        5        0       72       75       73       73
     1956        5        5        5        0       92      100       94       94
     1957        5        5        5        0       96       98      102      102
     1958        5        5        5        0       91      101       95       95
     1959        5        5        5        0       91       95      100      100
     1960        5        5        5        0       67       73       75       75
     1961        5        5        5        0       91      100       92       92
! ... 50 like lines cut
eblock,10,,,69
(15i9)
     2011        4        4        4        0       30       31       93       93
     2012        4        4        4        0       29       30       93       93
     2013        4        4        4        0       71       94       72       72
     2014        4        4        4        0       72       94       75       75
     2015        4        4        4        0       75       94       76       76
     2016        4        4        4        0       70       94       71       71
     2017        4        4        4        0       79       95       80       80
     2018        4        4        4        0       78       95       79       79
     2019        4        4        4        0       74       85       86       86
     2020        4        4        4        0       26       27       91       91
     2021        4        4        4        0       33       34       90       90
     2022        4        4        4        0       20       89       36       36
     2023        4        4        4        0        2       21       68       68
     2024        4        4        4        0       72       75       73       73
     2025        4        4        4        0       92      100       94       94
     2026        4        4        4        0       96       98      102      102
     2027        4        4        4        0       91      101       95       95
     2028        4        4        4        0       91       95      100      100
     2029        4        4        4        0       67       73       75       75
     2030        4        4        4        0       91      100       92       92
! ... 50 like lines cut
eblock,10,,,164
(15i9)
     2080        4        5        4        0      303      305      320      320
     2081        4        5        4        0      305      304      307      307
     2082        4        5        4        0      306      314      312      312
     2083        4        5        4        0      314      313      315      315
     2084        4        5        4        0      307      308      320      320
     2085        4        5        4        0      308      309      319      319
     2086        4        5        4        0      309      310      318      318
     2087        4        5        4        0      310      311      317      317
     2088        4        5        4        0      311      312      316      316
     2089        4        5        4        0      315      316      312      312
     2090        4        5        4        0      316      317      311      311
     2091        4        5        4        0      317      318      310      310
     2092        4        5        4        0      318      319      309      309
     2093        4        5        4        0      319      320      308      308
     2094        4        5        4        0      320      305      307      307
     2095        4        5        4        0      312      314      315      315
     2096        4        5        4        0      348      361      403      403
     2097        4        5        4        0      360      389      366      366
     2098        4        5        4        0      347      361      348      348
     2099        4        5        4        0      361      362      404      404
! ... 145 like lines cut
eblock,10,,,164
(15i9)
     2244        5        4        5        0      303      305      320      320
     2245        5        4        5        0      305      304      307      307
     2246        5        4        5        0      306      314      312      312
     2247        5        4        5        0      314      313      315      315
     2248        5        4        5        0      307      308      320      320
     2249        5        4        5        0      308      309      319      319
     2250        5        4        5        0      309      310      318      318
     2251        5        4        5        0      310      311      317      317
     2252        5        4        5        0      311      312      316      316
     2253        5        4        5        0      315      316      312      312
     2254        5        4        5        0      316      317      311      311
     2255        5        4        5        0      317      318      310      310
     2256        5        4        5        0      318      319      309      309
     2257        5        4        5        0      319      320      308      308
     2258        5        4        5        0      320      305      307      307
     2259        5        4        5        0      312      314      315      315
     2260        5        4        5        0      348      361      403      403
     2261        5        4        5        0      360      389      366      366
     2262        5        4        5        0      347      361      348      348
     2263        5        4        5        0      361      362      404      404
! ... 145 like lines cut
keyo,cid,8,2               ! auto create asymmetric contact (from Program Controlled setting)
keyo,cid,10,0              ! adjust contact stiffness each NR iteration (from Program Controlled setting)
keyo,cid,12,0              ! standard contact
mp,mu,cid,0.2       ! unitless
keyo,cid,2,0               ! augmented Lagrange (from Program Controlled setting)
keyo,cid,4,0               ! on Gauss point (from Program Controlled setting)
keyo,cid,9,0               ! use real geometry with stepped effects
keyo,cid,7,0               ! No Prediction
rmod,tid,3,1.       ! FKN
rmod,tid,5,0.       ! ICONT
rmod,tid,6,0.       ! PINB
rmod,tid,10,0.      ! CNOF
rmod,tid,12,0.      ! FKT
rmod,tid,36,40      ! WB DSID
rmod,cid,3,1.       ! FKN
rmod,cid,5,0.       ! ICONT
rmod,cid,6,0.       ! PINB
rmod,cid,10,0.      ! CNOF
rmod,cid,12,0.      ! FKT
rmod,cid,36,40      ! WB DSID
/com,*********** Create Contact "Frictional - No Selection To No Selection" ***********
/com,            Real Constant Set For Above Contact Is 7 & 6 
*set,tid,7
*set,cid,6
r,tid
r,cid
et,tid,170
et,cid,174
eblock,10,,,108
(15i9)
     2408        7        7        7        0      107      129      124      124
     2409        7        7        7        0      108      110      134      134
     2410        7        7        7        0      113      120      130      130
     2411        7        7        7        0      122      126      125      125
     2412        7        7        7        0      106      115      118      118
     2413        7        7        7        0      107      115      129      129
     2414        7        7        7        0      109      114      126      126
     2415        7        7        7        0      108      118      115      115
     2416        7        7        7        0      107      124      113      113
     2417        7        7        7        0      106      128      115      115
     2418        7        7        7        0      114      125      126      126
     2419        7        7        7        0      115      128      129      129
     2420        7        7        7        0      106      127      128      128
     2421        7        7        7        0      106      114      127      127
     2422        7        7        7        0      106      125      114      114
     2423        7        7        7        0      113      124      120      120
     2424        7        7        7        0      112      123      121      121
     2425        7        7        7        0      106      118      125      125
     2426        7        7        7        0      105      109      126      126
     2427        7        7        7        0      111      118      119      119
! ... 89 like lines cut
eblock,10,,,108
(15i9)
     2516        6        6        6        0      107      129      124      124
     2517        6        6        6        0      108      110      134      134
     2518        6        6        6        0      113      120      130      130
     2519        6        6        6        0      122      126      125      125
     2520        6        6        6        0      106      115      118      118
     2521        6        6        6        0      107      115      129      129
     2522        6        6        6        0      109      114      126      126
     2523        6        6        6        0      108      118      115      115
     2524        6        6        6        0      107      124      113      113
     2525        6        6        6        0      106      128      115      115
     2526        6        6        6        0      114      125      126      126
     2527        6        6        6        0      115      128      129      129
     2528        6        6        6        0      106      127      128      128
     2529        6        6        6        0      106      114      127      127
     2530        6        6        6        0      106      125      114      114
     2531        6        6        6        0      113      124      120      120
     2532        6        6        6        0      112      123      121      121
     2533        6        6        6        0      106      118      125      125
     2534        6        6        6        0      105      109      126      126
     2535        6        6        6        0      111      118      119      119
! ... 89 like lines cut
eblock,10,,,98
(15i9)
     2624        6        7        6        0      144      161      145      145
     2625        6        7        6        0      142      159      143      143
     2626        6        7        6        0      143      159      160      160
     2627        6        7        6        0      144      160      161      161
     2628        6        7        6        0      143      160      144      144
     2629        6        7        6        0      145      161      155      155
     2630        6        7        6        0      141      158      142      142
     2631        6        7        6        0      142      158      159      159
     2632        6        7        6        0      137      156      140      140
     2633        6        7        6        0      140      157      141      141
     2634        6        7        6        0      154      156      137      137
     2635        6        7        6        0      157      158      141      141
     2636        6        7        6        0      156      157      140      140
     2637        6        7        6        0      139      145      155      155
     2638        6        7        6        0      269      275      284      284
     2639        6        7        6        0      272      279      278      278
     2640        6        7        6        0      270      280      276      276
     2641        6        7        6        0      268      283      273      273
     2642        6        7        6        0      268      273      270      270
     2643        6        7        6        0      271      273      281      281
! ... 79 like lines cut
eblock,10,,,98
(15i9)
     2722        7        6        7        0      144      161      145      145
     2723        7        6        7        0      142      159      143      143
     2724        7        6        7        0      143      159      160      160
     2725        7        6        7        0      144      160      161      161
     2726        7        6        7        0      143      160      144      144
     2727        7        6        7        0      145      161      155      155
     2728        7        6        7        0      141      158      142      142
     2729        7        6        7        0      142      158      159      159
     2730        7        6        7        0      137      156      140      140
     2731        7        6        7        0      140      157      141      141
     2732        7        6        7        0      154      156      137      137
     2733        7        6        7        0      157      158      141      141
     2734        7        6        7        0      156      157      140      140
     2735        7        6        7        0      139      145      155      155
     2736        7        6        7        0      269      275      284      284
     2737        7        6        7        0      272      279      278      278
     2738        7        6        7        0      270      280      276      276
     2739        7        6        7        0      268      283      273      273
     2740        7        6        7        0      268      273      270      270
     2741        7        6        7        0      271      273      281      281
! ... 79 like lines cut
keyo,cid,8,2               ! auto create asymmetric contact (from Program Controlled setting)
keyo,cid,10,0              ! adjust contact stiffness each NR iteration (from Program Controlled setting)
keyo,cid,12,0              ! standard contact
mp,mu,cid,0.2       ! unitless
keyo,cid,2,0               ! augmented Lagrange (from Program Controlled setting)
keyo,cid,4,0               ! on Gauss point (from Program Controlled setting)
keyo,cid,9,0               ! use real geometry with stepped effects
keyo,cid,7,0               ! No Prediction
rmod,tid,3,1.       ! FKN
rmod,tid,5,0.       ! ICONT
rmod,tid,6,0.       ! PINB
rmod,tid,10,0.      ! CNOF
rmod,tid,12,0.      ! FKT
rmod,tid,36,43      ! WB DSID
rmod,cid,3,1.       ! FKN
rmod,cid,5,0.       ! ICONT
rmod,cid,6,0.       ! PINB
rmod,cid,10,0.      ! CNOF
rmod,cid,12,0.      ! FKT
rmod,cid,36,43      ! WB DSID
/com,*********** Create Contact "Contact Region 5" ***********
/com,            Real Constant Set For Above Contact Is 9 & 8 
*set,tid,9
*set,cid,8
r,tid
r,cid
et,tid,170
et,cid,174
eblock,10,,,60
(15i9)
     2820        9        9        9        0      107      129      124      124
     2821        9        9        9        0      108      110      134      134
     2822        9        9        9        0      113      120      130      130
     2823        9        9        9        0      106      115      118      118
     2824        9        9        9        0      107      115      129      129
     2825        9        9        9        0      108      118      115      115
     2826        9        9        9        0      107      124      113      113
     2827        9        9        9        0      106      128      115      115
     2828        9        9        9        0      115      128      129      129
     2829        9        9        9        0      106      127      128      128
     2830        9        9        9        0      106      114      127      127
     2831        9        9        9        0      106      125      114      114
     2832        9        9        9        0      113      124      120      120
     2833        9        9        9        0      106      118      125      125
     2834        9        9        9        0      111      118      119      119
     2835        9        9        9        0      108      119      118      118
     2836        9        9        9        0      110      113      116      116
     2837        9        9        9        0      107      113      110      110
     2838        9        9        9        0      113      130      116      116
     2839        9        9        9        0      111      125      118      118
! ... 41 like lines cut
eblock,10,,,60
(15i9)
     2880        8        8        8        0      107      129      124      124
     2881        8        8        8        0      108      110      134      134
     2882        8        8        8        0      113      120      130      130
     2883        8        8        8        0      106      115      118      118
     2884        8        8        8        0      107      115      129      129
     2885        8        8        8        0      108      118      115      115
     2886        8        8        8        0      107      124      113      113
     2887        8        8        8        0      106      128      115      115
     2888        8        8        8        0      115      128      129      129
     2889        8        8        8        0      106      127      128      128
     2890        8        8        8        0      106      114      127      127
     2891        8        8        8        0      106      125      114      114
     2892        8        8        8        0      113      124      120      120
     2893        8        8        8        0      106      118      125      125
     2894        8        8        8        0      111      118      119      119
     2895        8        8        8        0      108      119      118      118
     2896        8        8        8        0      110      113      116      116
     2897        8        8        8        0      107      113      110      110
     2898        8        8        8        0      113      130      116      116
     2899        8        8        8        0      111      125      118      118
! ... 41 like lines cut
eblock,10,,,66
(15i9)
     2940        8        9        8        0      198      161      249      249
     2941        8        9        8        0      154      230      156      156
     2942        8        9        8        0      156      230      244      244
     2943        8        9        8        0      157      244      245      245
     2944        8        9        8        0      158      245      246      246
     2945        8        9        8        0      159      246      247      247
     2946        8        9        8        0      160      247      248      248
     2947        8        9        8        0      161      248      249      249
     2948        8        9        8        0      156      244      157      157
     2949        8        9        8        0      157      245      158      158
     2950        8        9        8        0      158      246      159      159
     2951        8        9        8        0      159      247      160      160
     2952        8        9        8        0      160      248      161      161
     2953        8        9        8        0      155      161      198      198
     2954        8        9        8        0      252      258      257      257
     2955        8        9        8        0      239      254      240      240
     2956        8        9        8        0      198      249      206      206
     2957        8        9        8        0      251      260      255      255
     2958        8        9        8        0      200      201      254      254
     2959        8        9        8        0      253      256      261      261
! ... 47 like lines cut
eblock,10,,,66
(15i9)
     3006        9        8        9        0      198      161      249      249
     3007        9        8        9        0      154      230      156      156
     3008        9        8        9        0      156      230      244      244
     3009        9        8        9        0      157      244      245      245
     3010        9        8        9        0      158      245      246      246
     3011        9        8        9        0      159      246      247      247
     3012        9        8        9        0      160      247      248      248
     3013        9        8        9        0      161      248      249      249
     3014        9        8        9        0      156      244      157      157
     3015        9        8        9        0      157      245      158      158
     3016        9        8        9        0      158      246      159      159
     3017        9        8        9        0      159      247      160      160
     3018        9        8        9        0      160      248      161      161
     3019        9        8        9        0      155      161      198      198
     3020        9        8        9        0      252      258      257      257
     3021        9        8        9        0      239      254      240      240
     3022        9        8        9        0      198      249      206      206
     3023        9        8        9        0      251      260      255      255
     3024        9        8        9        0      200      201      254      254
     3025        9        8        9        0      253      256      261      261
! ... 47 like lines cut
keyo,cid,8,2               ! auto create asymmetric contact (from Program Controlled setting)
keyo,cid,10,0              ! adjust contact stiffness each NR iteration (from Program Controlled setting)
keyo,cid,12,5              ! bonded always
keyo,cid,18,1              ! small sliding turned on by application
keyo,cid,2,0               ! augmented Lagrange (from Program Controlled setting)
keyo,cid,4,0               ! on Gauss point (from Program Controlled setting)
keyo,cid,9,1               ! ignore initial gaps/penetration
keyo,cid,7,0               ! No Prediction
rmod,tid,3,1.       ! FKN
rmod,tid,5,0.       ! ICONT
rmod,tid,6,0.       ! PINB
rmod,tid,10,0.      ! CNOF
rmod,tid,12,0.      ! FKT
rmod,tid,36,27992   ! WB DSID
rmod,cid,3,1.       ! FKN
rmod,cid,5,0.       ! ICONT
rmod,cid,6,0.       ! PINB
rmod,cid,10,0.      ! CNOF
rmod,cid,12,0.      ! FKT
rmod,cid,36,27992   ! WB DSID
nsel,all
esel,all
/wb,contact,end            !  done creating contacts
/golist
/wb,load,start             !  starting to send loads
/com,*********** Fixed Supports ***********
CMBLOCK,_FIXEDSU,NODE,       75
(8i10)
       136       137       138       139       146       147       154       155
       162       163       164       165       166       167       168       169
       170       171       172       179       180       181       182       183
       184       185       186       187       188       189       190       197
       198       199       200       201       202       203       204       205
       206       207       208       209       210       211       212       213
       214       215       216       217       218       219       220       221
       222       223       224       225       226       227       228       229
       230       231       232       233       234       235       236       237
       250       288       289
cmsel,s,_FIXEDSU
d,all,all
nsel,all
/com,******* Constant Zero Displacement X *******
CMBLOCK,_DISPZEROUX,NODE,       61
(8i10)
       321       331       332       333       334       335       336       337
       348       349       350       351       352       353       354       355
       356       357       358       367       368       369       388       389
       390       391       392       393       394       395       396       397
       398       399       400       401       402       403       404       405
       406       407       408       409       410       411       412       413
       414       419       420       421       422       423       424       425
       426       427       428       429       430
cmsel,s,_DISPZEROUX
d,all,ux,0
nsel,all
/com,******* Constant Zero Displacement Z *******
CMBLOCK,_DISPZEROUZ,NODE,       42
(8i10)
       348       349       350       351       352       353       354       355
       356       388       389       390       391       392       393       394
       395       396       403       404       405       406       407       408
       409       410       411       412       413       414       419       420
       421       422       423       424       425       426       427       428
       429       430
cmsel,s,_DISPZEROUZ
d,all,uz,0
nsel,all
/com,*********** Create Displacement Tables and Functions ******

*DIM,_loadvari76yp,TABLE,5,1,1,TIME, , , 0
! Time values
*TAXIS,_loadvari76yp(1),1,0.,0.5,5.,10.,15.
! Load values
_loadvari76yp(1,1,1) = 0.
_loadvari76yp(2,1,1) = 0.
_loadvari76yp(3,1,1) = -25.
_loadvari76yp(4,1,1) = -25.
_loadvari76yp(5,1,1) = 0.



*DIM,_loadvari76yn,TABLE,5,1,1,TIME, , , 0
! Time values
*TAXIS,_loadvari76yn(1),1,0.,0.5,5.,10.,15.
! Load values
_loadvari76yn(1,1,1) = 0.
_loadvari76yn(2,1,1) = 0.
_loadvari76yn(3,1,1) = 25.
_loadvari76yn(4,1,1) = 25.
_loadvari76yn(5,1,1) = 0.


/gst,on,on
fini
*get,_numnode,node,0,count
*get,_numelem,elem,0,count
*get, _MAXELEMNUM, elem, 0, NUM, MAX
*get, _MAXNODENUM, node, 0, NUM, MAX
*get, _MAXELEMTYPE, etyp, 0, NUM, MAX
*get, _MAXREALCONST, rcon, 0, NUM, MAX
/go
/wb,load,end               !  done creating loads
/com,--- Number of total nodes = %_numnode%
/com,--- Number of contact elements = 1130
/com,--- Number of spring elements = 0
/com,--- Number of bearing elements = 0
/com,--- Number of solid elements = 1051
/com,--- Number of condensed parts = 0
/com,--- Number of total elements = %_numelem%
*get,_wallbsol,active,,time,wall
/com,****************************************************************************
/com,*************************    SOLUTION       ********************************
/com,****************************************************************************
/solu
antype,4                   ! transient analysis type for quasi static solution
nlgeom,on                  ! Turn on Large Deformation Effects
_thickRatio=  0     ! Ratio of thick parts in the model
eqsl,sparse,,,,,1
nropt,full                 ! Use full Newton-Raphson
cntr,print,1               ! print out contact info and also make no initial contact an error
dmpoption,emat,no             ! Don't combine emat file for DANSYS
dmpoption,esav,no             ! Don't combine esav file for DANSYS
tintp,quas				   ! Backward Euler Time Integration for quasi static solution 
trnopt,,,,,,,,,yes        ! Enable numerical damping for quasi static solution
nldiag,cont,iter           ! print out contact info each equilibrium iteration
rescontrol,define,last,last,,dele	   ! Program Controlled
/com,****************************************************
/com,******************* SOLVE FOR LS 1 OF 3 ****************
/com,*** Set Displacements ***
CMBLOCK,_CM76UY_YP,NODE,       42
(8i10)
       348       349       350       351       352       353       354       355
       356       388       389       390       391       392       393       394
       395       396       403       404       405       406       407       408
       409       410       411       412       413       414       419       420
       421       422       423       424       425       426       427       428
       429       430
cmsel,s,_CM76UY_YP
d,all,uy,%_loadvari76yp%
nsel,all

/com,*** Component For All Non-Zero UY Displacements ***
cmsel,s,_CM76uy_yp
cm,_DISPNONZEROUY,NODE
nsel,all

/nopr
/gopr
autots,off                 ! User turned off automatic time stepping
deltim,3.75e-002,3.75e-002,3.75e-002
time,5.
outres,erase
outres,all,none
outres,nsol,all,
outres,rsol,all
outres,eangl,all
outres,etmp,all
outres,veng,all
outres,strs,all,
outres,epel,all,
outres,eppl,all,
outres,cont,all,
! *********** WB SOLVE COMMAND ***********
! check interactive state
*get,ANSINTER_,active,,int
*if,ANSINTER_,ne,0,then
/eof
*endif
solve
/com *************** Write FE CONNECTORS ********* 
CEWRITE,file,ce,,INTE
/com,****************************************************
/com,*************** FINISHED SOLVE FOR LS 1 *************
/com,****************************************************
/com,******************* SOLVE FOR LS 2 OF 3 ****************
/com,*** Set Displacements ***
/nopr
/gopr
autots,off                 ! User turned off automatic time stepping
deltim,3.75e-002,3.75e-002,3.75e-002
time,10.
outres,erase
outres,all,none
outres,nsol,all,
outres,rsol,all
outres,eangl,all
outres,etmp,all
outres,veng,all
outres,strs,all,
outres,epel,all,
outres,eppl,all,
outres,cont,all,
solve
/com,****************************************************
/com,*************** FINISHED SOLVE FOR LS 2 *************
/com,****************************************************
/com,******************* SOLVE FOR LS 3 OF 3 ****************
/com,*** Set Displacements ***
/nopr
/gopr
autots,off                 ! User turned off automatic time stepping
deltim,3.75e-002,3.75e-002,3.75e-002
time,15.
outres,erase
outres,all,none
outres,nsol,all,
outres,rsol,all
outres,eangl,all
outres,etmp,all
outres,veng,all
outres,strs,all,
outres,epel,all,
outres,eppl,all,
outres,cont,all,
solve
/com,****************************************************
/com,*************** FINISHED SOLVE FOR LS 3 *************
*get,_wallasol,active,,time,wall
/nopr
*get,_numnode,node,0,count
*get,_numelem,elem,0,count
*get, _MAXELEMNUM, elem, 0, NUM, MAX
*get, _MAXNODENUM, node, 0, NUM, MAX,,,INTERNAL
*get, _MAXELEMTYPE, etyp, 0, NUM, MAX
*get, _MAXREALCONST, rcon, 0, NUM, MAX
*get,_NSOLTHREADS,active,0,ntfs
*get,_NSOLPROCESSES,active,0,npfs
/gopr
/post1
xmlo,ENCODING,ISO-8859-1
xmlo,parm
/xml,parm,xml
fini
/gopr
*get,_walldone,active,,time,wall
_preptime=(_wallbsol-_wallstrt)*3600
_solvtime=(_wallasol-_wallbsol)*3600
_posttime=(_walldone-_wallasol)*3600
_totaltim=(_walldone-_wallstrt)*3600
*get,_dlbratio,active,0,solu,dlbr
*get,_combtime,active,0,solu,comb
*get,_ssmode,active,0,solu,ssmm
*get,_ndofs,active,0,solu,ndof
*get,_sol_end_time,active,0,set,time
*if,_sol_end_time,eq,15.000000,then
/fclean				!clean distributed files
*endif
/com,--- Total number of nodes = %_numnode%
/com,--- Total number of elements = %_numelem%
/com,--- Element load balance ratio = %_dlbratio%
/com,--- Time to combine distributed files = %_combtime%
/com,--- Sparse memory mode = %_ssmode%
/com,--- Number of DOF = %_ndofs%
/wb,file,end               ! done with WB generated input
