/batch
/config,noeldb,1     ! force off writing results to database
*get,_wallstrt,active,,time,wall
! ANSYS input file written by Workbench version 2024 R2
! File used for geometry attach: E:\ANK\WEEK_4\VISCO_WK4_4_files\dp0\Geom-4\DM\Geom-4.scdoc
/title,VISCO_WK4_4--Static Structural (B5)
! ****** Begin Custom Load Command Snippet ******
/COM, ACT Extensions:
/COM,     LSDYNA, 2024.2
/COM,     5f463412-bd3e-484b-87e7-cbc0a665e474, wbex
/COM,/COM,     ANSYSMotion, 2024.2
/COM,     20180725-3f81-49eb-9f31-41364844c769, wbex
/COM,
! ****** End   Custom Load Command Snippet ******
*DIM,_wb_ProjectScratch_dir,string,248
_wb_ProjectScratch_dir(1) = 'E:\ANK\WEEK_4\VISCO_WK4_4_files\dp0\SYS-4\MECH\'
*DIM,_wb_SolverFiles_dir,string,248
_wb_SolverFiles_dir(1) = 'E:\ANK\WEEK_4\VISCO_WK4_4_files\dp0\SYS-4\MECH\'
*DIM,_wb_userfiles_dir,string,248
_wb_userfiles_dir(1) = 'E:\ANK\WEEK_4\VISCO_WK4_4_files\user_files\'
/com,--- Data in consistent NMM units. See Solving Units in the help system for more information.
/units,MPA
/nopr
/wb,file,start              !  signify a WB generated input file
/prep7
! Turn off shape checking because checks already performed inside WB mesher.
! See help system for more information.
SHPP,OFF,,NOWARN
/nolist
etcon,set             ! allow ANSYS to choose best KEYOP's for 180x elements, resets any applicable keyopt to MAPDL defaults
/com,*********** Nodes for the whole assembly ***********
nblock,3,,501
(1i9,3e20.9e3)
        1     0.000000000E+00     0.000000000E+00    -1.250000000E+02
        2     0.000000000E+00     1.000000000E+01    -1.250000000E+02
        3    -3.000000000E+02     0.000000000E+00    -1.250000000E+02
        4    -2.823529412E+02     0.000000000E+00    -1.250000000E+02
        5    -2.647058824E+02     0.000000000E+00    -1.250000000E+02
        6    -2.470588235E+02     0.000000000E+00    -1.250000000E+02
        7    -2.294117647E+02     0.000000000E+00    -1.250000000E+02
        8    -2.117647059E+02     0.000000000E+00    -1.250000000E+02
        9    -1.941176471E+02     0.000000000E+00    -1.250000000E+02
       10    -1.764705882E+02     0.000000000E+00    -1.250000000E+02
       11    -1.588235294E+02     0.000000000E+00    -1.250000000E+02
       12    -1.411764706E+02     0.000000000E+00    -1.250000000E+02
       13    -1.235294118E+02     0.000000000E+00    -1.250000000E+02
       14    -1.058823529E+02     0.000000000E+00    -1.250000000E+02
       15    -8.823529412E+01     0.000000000E+00    -1.250000000E+02
       16    -7.058823529E+01     0.000000000E+00    -1.250000000E+02
       17    -5.294117647E+01     0.000000000E+00    -1.250000000E+02
       18    -3.529411765E+01     0.000000000E+00    -1.250000000E+02
       19    -1.764705882E+01     0.000000000E+00    -1.250000000E+02
       20    -3.000000000E+02     1.000000000E+01    -1.250000000E+02
! ... 437 like lines cut
/wb,elem,start            !  set before creation of elements
/com,*********** Elements for Body 1 'Plate' ***********
et,1,185
eblock,19,solid,,265
(19i9)
        1        1        1        1        0        0        0        0        8        0        1       96      112      105      105      123      123      123      123
        1        1        1        1        0        0        0        0        8        0        2       96      123       99       99      112      112      112      112
        1        1        1        1        0        0        0        0        8        0        3       96      132      123      123      105      105      105      105
        1        1        1        1        0        0        0        0        8        0        4       90      105       96       96      112      112      112      112
        1        1        1        1        0        0        0        0        8        0        5       90      112       96       96       99       99       99       99
        1        1        1        1        0        0        0        0        8        0        6       99      121      112      112      123      123      123      123
        1        1        1        1        0        0        0        0        8        0        7       84       99       96       96      123      123      123      123
        1        1        1        1        0        0        0        0        8        0        8       96      132      105      105      122      122      122      122
        1        1        1        1        0        0        0        0        8        0        9       83       96      132      132      123      123      123      123
        1        1        1        1        0        0        0        0        8        0       10       90      109      105      105      112      112      112      112
        1        1        1        1        0        0        0        0        8        0       11       90      112       99       99      117      117      117      117
        1        1        1        1        0        0        0        0        8        0       12       84      121       99       99      123      123      123      123
        1        1        1        1        0        0        0        0        8        0       13       99      131      112      112      121      121      121      121
        1        1        1        1        0        0        0        0        8        0       14       83       96      123      123       84       84       84       84
        1        1        1        1        0        0        0        0        8        0       15       96      105      126      126      122      122      122      122
        1        1        1        1        0        0        0        0        8        0       16       96       98      132      132      122      122      122      122
        1        1        1        1        0        0        0        0        8        0       17       56      123       83       83      132      132      132      132
        1        1        1        1        0        0        0        0        8        0       18       82       96      132      132       83       83       83       83
        1        1        1        1        0        0        0        0        8        0       19       90      112      117      117      109      109      109      109
        1        1        1        1        0        0        0        0        8        0       20       90      109      126      126      105      105      105      105
! ... 246 like lines cut
! Material Id = {74FCC8DB-7E2C-4D34-B0BF-59E91014FE43}
/com,*********** Elements for Body 2 'Lower Die' ***********
et,2,185
eblock,19,solid,,351
(19i9)
        2        2        2        2        0        0        0        0        8        0      266      272      274      279      279      273      273      273      273
        2        2        2        2        0        0        0        0        8        0      267      272      279      274      274      276      276      276      276
        2        2        2        2        0        0        0        0        8        0      268      211      274      286      286      276      276      276      276
        2        2        2        2        0        0        0        0        8        0      269      232      274      286      286      246      246      246      246
        2        2        2        2        0        0        0        0        8        0      270      217      274      232      232      218      218      218      218
        2        2        2        2        0        0        0        0        8        0      271      211      286      212      212      276      276      276      276
        2        2        2        2        0        0        0        0        8        0      272      210      286      211      211      274      274      274      274
        2        2        2        2        0        0        0        0        8        0      273      212      286      285      285      276      276      276      276
        2        2        2        2        0        0        0        0        8        0      274      210      286      274      274      246      246      246      246
        2        2        2        2        0        0        0        0        8        0      275      232      279      280      280      285      285      285      285
        2        2        2        2        0        0        0        0        8        0      276      212      276      285      285      213      213      213      213
        2        2        2        2        0        0        0        0        8        0      277      209      210      274      274      246      246      246      246
        2        2        2        2        0        0        0        0        8        0      278      209      246      274      274      219      219      219      219
        2        2        2        2        0        0        0        0        8        0      279      208      232      246      246      219      219      219      219
        2        2        2        2        0        0        0        0        8        0      280      208      219      246      246      209      209      209      209
        2        2        2        2        0        0        0        0        8        0      281      163      164      213      213      287      287      287      287
        2        2        2        2        0        0        0        0        8        0      282      154      287      164      164      163      163      163      163
        2        2        2        2        0        0        0        0        8        0      283      152      233      153      153      262      262      262      262
        2        2        2        2        0        0        0        0        8        0      284      151      251      152      152      268      268      268      268
        2        2        2        2        0        0        0        0        8        0      285      150      268      251      251      151      151      151      151
! ... 332 like lines cut
! Material Id = {A3093036-FF09-4E71-B329-10478565D830}
/com,*********** Elements for Body 3 'Upper Die' ***********
et,3,185
eblock,19,solid,,378
(19i9)
        3        3        3        3        0        0        0        0        8        0      617      424      442      456      456      454      454      454      454
        3        3        3        3        0        0        0        0        8        0      618      355      439      456      456      427      427      427      427
        3        3        3        3        0        0        0        0        8        0      619      424      456      427      427      454      454      454      454
        3        3        3        3        0        0        0        0        8        0      620      424      439      427      427      456      456      456      456
        3        3        3        3        0        0        0        0        8        0      621      414      442      456      456      453      453      453      453
        3        3        3        3        0        0        0        0        8        0      622      424      456      442      442      453      453      453      453
        3        3        3        3        0        0        0        0        8        0      623      336      354      456      456      337      337      337      337
        3        3        3        3        0        0        0        0        8        0      624      336      456      439      439      337      337      337      337
        3        3        3        3        0        0        0        0        8        0      625      414      456      434      434      453      453      453      453
        3        3        3        3        0        0        0        0        8        0      626      337      354      456      456      353      353      353      353
        3        3        3        3        0        0        0        0        8        0      627      336      456      355      355      439      439      439      439
        3        3        3        3        0        0        0        0        8        0      628      336      354      355      355      456      456      456      456
        3        3        3        3        0        0        0        0        8        0      629      337      456      439      439      434      434      434      434
        3        3        3        3        0        0        0        0        8        0      630      424      439      456      456      434      434      434      434
        3        3        3        3        0        0        0        0        8        0      631      353      414      456      456      434      434      434      434
        3        3        3        3        0        0        0        0        8        0      632      353      414      354      354      456      456      456      456
        3        3        3        3        0        0        0        0        8        0      633      354      414      355      355      456      456      456      456
        3        3        3        3        0        0        0        0        8        0      634      340      455      380      380      379      379      379      379
        3        3        3        3        0        0        0        0        8        0      635      340      360      455      455      451      451      451      451
        3        3        3        3        0        0        0        0        8        0      636      340      455      379      379      451      451      451      451
! ... 359 like lines cut
! Material Id = {6C4F2C9F-937E-4F95-AFE9-C4F5945E4210}
/wb,elem,end               !  done creating elements
/com,*********** Send User Defined Coordinate System(s) ***********
csys,0
toffst,273.15,      ! Temperature offset from absolute zero
/com,*********** Set Reference Temperature ***********
tref,22.
/wb,mat,start              !  starting to send materials
/com,*********** Send Materials ***********

TB,PRONY,1,1,6,BULK
TBTEMP,869
TBDATA,1,0.0222,5.009e-05,0.0224,0.0009945,0.0286,0.002022
TBDATA,7,0.2137,0.01925,0.394,0.1199,0.3191,2.033

TB,PRONY,1,1,6,SHEAR
TBTEMP,595.85
TBDATA,1,0.05523,6.658e-05,0.08205,0.001197,0.1215,0.01514
TBDATA,7,0.2286,0.1672,0.286,0.7497,0.22662,3.292
MP,DENS,1,2.74e-09,	! tonne mm^-3
MP,EX,1,70000,	! tonne s^-2 mm^-1
MP,NUXY,1,0.22,
MP,UVID,1,97a6bb41-32eb-488c-bbc2-9600d081f55b

Temperature = 'TEMP' ! Temperature
MP,DENS,2,4.62e-09,	! tonne mm^-3
MP,ALPX,2,9.4e-06,	! C^-1
MP,C,2,522000000,	! mm^2 s^-2 C^-1
MP,KXX,2,21.9,	! tonne mm s^-3 C^-1
MP,RSVX,2,0.0017,	! ohm mm
MP,EX,2,96000,	! tonne s^-2 mm^-1
MP,NUXY,2,0.36,
MP,MURX,2,1,
MP,UVID,2,283b7a77-d900-47ec-82e2-79ef1753b86c
MP,UMID,2,c4cc4a57-3226-45fe-b3f8-5a83eb845bd6

Temperature = 'TEMP' ! Temperature
MP,DENS,3,4.62e-09,	! tonne mm^-3
MP,ALPX,3,9.4e-06,	! C^-1
MP,C,3,522000000,	! mm^2 s^-2 C^-1
MP,KXX,3,21.9,	! tonne mm s^-3 C^-1
MP,RSVX,3,0.0017,	! ohm mm
MP,EX,3,96000,	! tonne s^-2 mm^-1
MP,NUXY,3,0.36,
MP,MURX,3,1,
MP,UVID,3,283b7a77-d900-47ec-82e2-79ef1753b86c
MP,UMID,3,c4cc4a57-3226-45fe-b3f8-5a83eb845bd6

/wb,mat,end                !  done sending materials
!************************* Model Summary ********************
!Plate,	VISCO,	matid,	1
!Lower Die,	Titanium Alloy,	matid,	2
!Upper Die,	Titanium Alloy,	matid,	3
!************************* End Model Summary ********************
! get the diagonal of the bounding box. Needed later for other things
*get,_xmin,node,,mnloc,x
*get,_ymin,node,,mnloc,y
*get,_zmin,node,,mnloc,z
*get,_xmax,node,,mxloc,x
*get,_ymax,node,,mxloc,y
*get,_zmax,node,,mxloc,z
_ASMDIAG=(_xmax-_xmin)*(_xmax-_xmin)+(_ymax-_ymin)*(_ymax-_ymin)+(_zmax-_zmin)*(_zmax-_zmin)
_ASMDIAG=SQRT(_ASMDIAG)
/wb,contact,start          !  starting to send contact
/com,*********** Create Contact "Frictional - No Selection To No Selection" ***********
/com,            Real Constant Set For Above Contact Is 5 & 4 
*set,tid,5
*set,cid,4
r,tid
r,cid
et,tid,170
et,cid,174
eblock,10,,,69
(15i9)
     1857        5        5        5        0       30       31       93       93
     1858        5        5        5        0       29       30       93       93
     1859        5        5        5        0       71       94       72       72
     1860        5        5        5        0       72       94       75       75
     1861        5        5        5        0       75       94       76       76
     1862        5        5        5        0       70       94       71       71
     1863        5        5        5        0       79       95       80       80
     1864        5        5        5        0       78       95       79       79
     1865        5        5        5        0       74       85       86       86
     1866        5        5        5        0       26       27       91       91
     1867        5        5        5        0       33       34       90       90
     1868        5        5        5        0       20       89       36       36
     1869        5        5        5        0        2       21       68       68
     1870        5        5        5        0       72       75       73       73
     1871        5        5        5        0       92      100       94       94
     1872        5        5        5        0       96       98      102      102
     1873        5        5        5        0       91      101       95       95
     1874        5        5        5        0       91       95      100      100
     1875        5        5        5        0       67       73       75       75
     1876        5        5        5        0       91      100       92       92
! ... 50 like lines cut
eblock,10,,,69
(15i9)
     1926        4        4        4        0       30       31       93       93
     1927        4        4        4        0       29       30       93       93
     1928        4        4        4        0       71       94       72       72
     1929        4        4        4        0       72       94       75       75
     1930        4        4        4        0       75       94       76       76
     1931        4        4        4        0       70       94       71       71
     1932        4        4        4        0       79       95       80       80
     1933        4        4        4        0       78       95       79       79
     1934        4        4        4        0       74       85       86       86
     1935        4        4        4        0       26       27       91       91
     1936        4        4        4        0       33       34       90       90
     1937        4        4        4        0       20       89       36       36
     1938        4        4        4        0        2       21       68       68
     1939        4        4        4        0       72       75       73       73
     1940        4        4        4        0       92      100       94       94
     1941        4        4        4        0       96       98      102      102
     1942        4        4        4        0       91      101       95       95
     1943        4        4        4        0       91       95      100      100
     1944        4        4        4        0       67       73       75       75
     1945        4        4        4        0       91      100       92       92
! ... 50 like lines cut
eblock,10,,,152
(15i9)
     1995        4        5        4        0      295      298      310      310
     1996        4        5        4        0      297      304      305      305
     1997        4        5        4        0      296      298      295      295
     1998        4        5        4        0      298      299      310      310
     1999        4        5        4        0      299      300      309      309
     2000        4        5        4        0      300      301      308      308
     2001        4        5        4        0      301      302      307      307
     2002        4        5        4        0      302      303      306      306
     2003        4        5        4        0      303      297      305      305
     2004        4        5        4        0      305      306      303      303
     2005        4        5        4        0      306      307      302      302
     2006        4        5        4        0      307      308      301      301
     2007        4        5        4        0      308      309      300      300
     2008        4        5        4        0      309      310      299      299
     2009        4        5        4        0      308      417      309      309
     2010        4        5        4        0      306      418      307      307
     2011        4        5        4        0      417      419      422      422
     2012        4        5        4        0      364      420      418      418
     2013        4        5        4        0      305      362      418      418
     2014        4        5        4        0      384      389      393      393
! ... 133 like lines cut
eblock,10,,,152
(15i9)
     2147        5        4        5        0      295      298      310      310
     2148        5        4        5        0      297      304      305      305
     2149        5        4        5        0      296      298      295      295
     2150        5        4        5        0      298      299      310      310
     2151        5        4        5        0      299      300      309      309
     2152        5        4        5        0      300      301      308      308
     2153        5        4        5        0      301      302      307      307
     2154        5        4        5        0      302      303      306      306
     2155        5        4        5        0      303      297      305      305
     2156        5        4        5        0      305      306      303      303
     2157        5        4        5        0      306      307      302      302
     2158        5        4        5        0      307      308      301      301
     2159        5        4        5        0      308      309      300      300
     2160        5        4        5        0      309      310      299      299
     2161        5        4        5        0      308      417      309      309
     2162        5        4        5        0      306      418      307      307
     2163        5        4        5        0      417      419      422      422
     2164        5        4        5        0      364      420      418      418
     2165        5        4        5        0      305      362      418      418
     2166        5        4        5        0      384      389      393      393
! ... 133 like lines cut
keyo,cid,8,2               ! auto create asymmetric contact (from Program Controlled setting)
keyo,cid,10,0              ! adjust contact stiffness each NR iteration (from Program Controlled setting)
keyo,cid,12,0              ! standard contact
mp,mu,cid,0.2       ! unitless
keyo,cid,2,0               ! augmented Lagrange (from Program Controlled setting)
keyo,cid,4,0               ! on Gauss point (from Program Controlled setting)
keyo,cid,9,0               ! use real geometry with stepped effects
keyo,cid,7,0               ! No Prediction
rmod,tid,3,1.       ! FKN
rmod,tid,5,0.       ! ICONT
rmod,tid,6,0.       ! PINB
rmod,tid,10,0.      ! CNOF
rmod,tid,12,0.      ! FKT
rmod,tid,36,40      ! WB DSID
rmod,cid,3,1.       ! FKN
rmod,cid,5,0.       ! ICONT
rmod,cid,6,0.       ! PINB
rmod,cid,10,0.      ! CNOF
rmod,cid,12,0.      ! FKT
rmod,cid,36,40      ! WB DSID
/com,*********** Create Contact "Frictional - No Selection To No Selection" ***********
/com,            Real Constant Set For Above Contact Is 7 & 6 
*set,tid,7
*set,cid,6
r,tid
r,cid
et,tid,170
et,cid,174
eblock,10,,,108
(15i9)
     2299        7        7        7        0      107      129      124      124
     2300        7        7        7        0      108      110      134      134
     2301        7        7        7        0      113      120      130      130
     2302        7        7        7        0      122      126      125      125
     2303        7        7        7        0      106      115      118      118
     2304        7        7        7        0      107      115      129      129
     2305        7        7        7        0      109      114      126      126
     2306        7        7        7        0      108      118      115      115
     2307        7        7        7        0      107      124      113      113
     2308        7        7        7        0      106      128      115      115
     2309        7        7        7        0      114      125      126      126
     2310        7        7        7        0      115      128      129      129
     2311        7        7        7        0      106      127      128      128
     2312        7        7        7        0      106      114      127      127
     2313        7        7        7        0      106      125      114      114
     2314        7        7        7        0      113      124      120      120
     2315        7        7        7        0      112      123      121      121
     2316        7        7        7        0      106      118      125      125
     2317        7        7        7        0      105      109      126      126
     2318        7        7        7        0      111      118      119      119
! ... 89 like lines cut
eblock,10,,,108
(15i9)
     2407        6        6        6        0      107      129      124      124
     2408        6        6        6        0      108      110      134      134
     2409        6        6        6        0      113      120      130      130
     2410        6        6        6        0      122      126      125      125
     2411        6        6        6        0      106      115      118      118
     2412        6        6        6        0      107      115      129      129
     2413        6        6        6        0      109      114      126      126
     2414        6        6        6        0      108      118      115      115
     2415        6        6        6        0      107      124      113      113
     2416        6        6        6        0      106      128      115      115
     2417        6        6        6        0      114      125      126      126
     2418        6        6        6        0      115      128      129      129
     2419        6        6        6        0      106      127      128      128
     2420        6        6        6        0      106      114      127      127
     2421        6        6        6        0      106      125      114      114
     2422        6        6        6        0      113      124      120      120
     2423        6        6        6        0      112      123      121      121
     2424        6        6        6        0      106      118      125      125
     2425        6        6        6        0      105      109      126      126
     2426        6        6        6        0      111      118      119      119
! ... 89 like lines cut
eblock,10,,,102
(15i9)
     2515        6        7        6        0      143      158      144      144
     2516        6        7        6        0      157      145      144      144
     2517        6        7        6        0      141      161      160      160
     2518        6        7        6        0      159      142      160      160
     2519        6        7        6        0      159      143      142      142
     2520        6        7        6        0      140      161      141      141
     2521        6        7        6        0      139      156      155      155
     2522        6        7        6        0      139      145      156      156
     2523        6        7        6        0      161      140      154      154
     2524        6        7        6        0      158      143      159      159
     2525        6        7        6        0      156      145      157      157
     2526        6        7        6        0      144      158      157      157
     2527        6        7        6        0      160      142      141      141
     2528        6        7        6        0      154      140      137      137
     2529        6        7        6        0      136      138      153      153
     2530        6        7        6        0      138      137      140      140
     2531        6        7        6        0      139      147      145      145
     2532        6        7        6        0      147      146      148      148
     2533        6        7        6        0      140      141      153      153
     2534        6        7        6        0      141      142      152      152
! ... 83 like lines cut
eblock,10,,,102
(15i9)
     2617        7        6        7        0      143      158      144      144
     2618        7        6        7        0      157      145      144      144
     2619        7        6        7        0      141      161      160      160
     2620        7        6        7        0      159      142      160      160
     2621        7        6        7        0      159      143      142      142
     2622        7        6        7        0      140      161      141      141
     2623        7        6        7        0      139      156      155      155
     2624        7        6        7        0      139      145      156      156
     2625        7        6        7        0      161      140      154      154
     2626        7        6        7        0      158      143      159      159
     2627        7        6        7        0      156      145      157      157
     2628        7        6        7        0      144      158      157      157
     2629        7        6        7        0      160      142      141      141
     2630        7        6        7        0      154      140      137      137
     2631        7        6        7        0      136      138      153      153
     2632        7        6        7        0      138      137      140      140
     2633        7        6        7        0      139      147      145      145
     2634        7        6        7        0      147      146      148      148
     2635        7        6        7        0      140      141      153      153
     2636        7        6        7        0      141      142      152      152
! ... 83 like lines cut
keyo,cid,8,2               ! auto create asymmetric contact (from Program Controlled setting)
keyo,cid,10,0              ! adjust contact stiffness each NR iteration (from Program Controlled setting)
keyo,cid,12,0              ! standard contact
mp,mu,cid,0.2       ! unitless
keyo,cid,2,0               ! augmented Lagrange (from Program Controlled setting)
keyo,cid,4,0               ! on Gauss point (from Program Controlled setting)
keyo,cid,9,0               ! use real geometry with stepped effects
keyo,cid,7,0               ! No Prediction
rmod,tid,3,1.       ! FKN
rmod,tid,5,0.       ! ICONT
rmod,tid,6,0.       ! PINB
rmod,tid,10,0.      ! CNOF
rmod,tid,12,0.      ! FKT
rmod,tid,36,43      ! WB DSID
rmod,cid,3,1.       ! FKN
rmod,cid,5,0.       ! ICONT
rmod,cid,6,0.       ! PINB
rmod,cid,10,0.      ! CNOF
rmod,cid,12,0.      ! FKT
rmod,cid,36,43      ! WB DSID
/com,*********** Create Contact "Contact Region 4" ***********
/com,            Real Constant Set For Above Contact Is 9 & 8 
*set,tid,9
*set,cid,8
r,tid
r,cid
et,tid,170
et,cid,174
eblock,10,,,52
(15i9)
     2719        9        9        9        0      107      129      124      124
     2720        9        9        9        0      108      110      134      134
     2721        9        9        9        0      113      120      130      130
     2722        9        9        9        0      106      115      118      118
     2723        9        9        9        0      107      115      129      129
     2724        9        9        9        0      108      118      115      115
     2725        9        9        9        0      107      124      113      113
     2726        9        9        9        0      106      128      115      115
     2727        9        9        9        0      115      128      129      129
     2728        9        9        9        0      106      127      128      128
     2729        9        9        9        0      113      124      120      120
     2730        9        9        9        0      108      119      118      118
     2731        9        9        9        0      110      113      116      116
     2732        9        9        9        0      107      113      110      110
     2733        9        9        9        0      113      130      116      116
     2734        9        9        9        0      108      133      119      119
     2735        9        9        9        0      108      107      110      110
     2736        9        9        9        0      108      115      107      107
     2737        9        9        9        0      108      134      133      133
     2738        9        9        9        0        1       43       19       19
! ... 33 like lines cut
eblock,10,,,52
(15i9)
     2771        8        8        8        0      107      129      124      124
     2772        8        8        8        0      108      110      134      134
     2773        8        8        8        0      113      120      130      130
     2774        8        8        8        0      106      115      118      118
     2775        8        8        8        0      107      115      129      129
     2776        8        8        8        0      108      118      115      115
     2777        8        8        8        0      107      124      113      113
     2778        8        8        8        0      106      128      115      115
     2779        8        8        8        0      115      128      129      129
     2780        8        8        8        0      106      127      128      128
     2781        8        8        8        0      113      124      120      120
     2782        8        8        8        0      108      119      118      118
     2783        8        8        8        0      110      113      116      116
     2784        8        8        8        0      107      113      110      110
     2785        8        8        8        0      113      130      116      116
     2786        8        8        8        0      108      133      119      119
     2787        8        8        8        0      108      107      110      110
     2788        8        8        8        0      108      115      107      107
     2789        8        8        8        0      108      134      133      133
     2790        8        8        8        0        1       43       19       19
! ... 33 like lines cut
eblock,10,,,52
(15i9)
     2823        8        9        8        0      209      219      274      274
     2824        8        9        8        0      209      274      210      210
     2825        8        9        8        0      165      276      166      166
     2826        8        9        8        0      272      273      275      275
     2827        8        9        8        0      170      171      214      214
     2828        8        9        8        0      217      273      274      274
     2829        8        9        8        0      215      273      216      216
     2830        8        9        8        0      272      276      274      274
     2831        8        9        8        0      273      278      275      275
     2832        8        9        8        0      208      219      209      209
     2833        8        9        8        0      173      174      275      275
     2834        8        9        8        0      272      274      273      273
     2835        8        9        8        0      166      272      167      167
     2836        8        9        8        0      216      273      217      217
     2837        8        9        8        0      162      169      175      175
     2838        8        9        8        0      163      213      164      164
     2839        8        9        8        0      211      276      212      212
     2840        8        9        8        0      218      274      219      219
     2841        8        9        8        0      211      274      276      276
     2842        8        9        8        0      272      275      277      277
! ... 33 like lines cut
eblock,10,,,52
(15i9)
     2875        9        8        9        0      209      219      274      274
     2876        9        8        9        0      209      274      210      210
     2877        9        8        9        0      165      276      166      166
     2878        9        8        9        0      272      273      275      275
     2879        9        8        9        0      170      171      214      214
     2880        9        8        9        0      217      273      274      274
     2881        9        8        9        0      215      273      216      216
     2882        9        8        9        0      272      276      274      274
     2883        9        8        9        0      273      278      275      275
     2884        9        8        9        0      208      219      209      209
     2885        9        8        9        0      173      174      275      275
     2886        9        8        9        0      272      274      273      273
     2887        9        8        9        0      166      272      167      167
     2888        9        8        9        0      216      273      217      217
     2889        9        8        9        0      162      169      175      175
     2890        9        8        9        0      163      213      164      164
     2891        9        8        9        0      211      276      212      212
     2892        9        8        9        0      218      274      219      219
     2893        9        8        9        0      211      274      276      276
     2894        9        8        9        0      272      275      277      277
! ... 33 like lines cut
keyo,cid,8,2               ! auto create asymmetric contact (from Program Controlled setting)
keyo,cid,10,0              ! adjust contact stiffness each NR iteration (from Program Controlled setting)
keyo,cid,12,5              ! bonded always
keyo,cid,18,1              ! small sliding turned on by application
keyo,cid,2,0               ! augmented Lagrange (from Program Controlled setting)
keyo,cid,4,0               ! on Gauss point (from Program Controlled setting)
keyo,cid,9,1               ! ignore initial gaps/penetration
keyo,cid,7,0               ! No Prediction
rmod,tid,3,1.       ! FKN
rmod,tid,5,0.       ! ICONT
rmod,tid,6,0.       ! PINB
rmod,tid,10,0.      ! CNOF
rmod,tid,12,0.      ! FKT
rmod,tid,36,25254   ! WB DSID
rmod,cid,3,1.       ! FKN
rmod,cid,5,0.       ! ICONT
rmod,cid,6,0.       ! PINB
rmod,cid,10,0.      ! CNOF
rmod,cid,12,0.      ! FKT
rmod,cid,36,25254   ! WB DSID
nsel,all
esel,all
/wb,contact,end            !  done creating contacts
/golist
/wb,load,start             !  starting to send loads
/com,*********** Fixed Supports ***********
CMBLOCK,_FIXEDSU,NODE,       74
(8i10)
       136       137       138       139       146       147       154       155
       162       163       170       171       172       173       174       175
       176       177       178       179       180       181       182       183
       184       185       186       187       188       189       190       191
       192       193       194       195       196       197       198       199
       200       201       202       203       204       205       206       207
       208       209       210       211       212       213       220       221
       222       223       224       225       226       227       228       229
       230       231       232       233       246       280       284       285
       286       287
cmsel,s,_FIXEDSU
d,all,all
nsel,all
/com,******* Constant Zero Displacement X *******
CMBLOCK,_DISPZEROUX,NODE,       52
(8i10)
       295       304       305       306       307       308       309       310
       329       340       341       342       361       362       363       364
       365       366       367       378       379       380       381       382
       383       384       385       386       387       388       389       390
       391       393       394       395       396       397       398       399
       400       401       402       403       404       416       417       418
       419       420       421       422
cmsel,s,_DISPZEROUX
d,all,ux,0
nsel,all
/com,******* Constant Zero Displacement Z *******
CMBLOCK,_DISPZEROUZ,NODE,       33
(8i10)
       295       304       305       306       307       308       309       310
       361       362       363       364       365       366       384       385
       386       387       388       389       393       394       395       396
       397       398       416       417       418       419       420       421
       422
cmsel,s,_DISPZEROUZ
d,all,uz,0
nsel,all
/com,*********** Create Displacement Tables and Functions ******

*DIM,_loadvari76yp,TABLE,5,1,1,TIME, , , 0
! Time values
*TAXIS,_loadvari76yp(1),1,0.,0.5,5.,10.,15.
! Load values
_loadvari76yp(1,1,1) = 0.
_loadvari76yp(2,1,1) = 0.
_loadvari76yp(3,1,1) = -25.
_loadvari76yp(4,1,1) = -25.
_loadvari76yp(5,1,1) = 0.



*DIM,_loadvari76yn,TABLE,5,1,1,TIME, , , 0
! Time values
*TAXIS,_loadvari76yn(1),1,0.,0.5,5.,10.,15.
! Load values
_loadvari76yn(1,1,1) = 0.
_loadvari76yn(2,1,1) = 0.
_loadvari76yn(3,1,1) = 25.
_loadvari76yn(4,1,1) = 25.
_loadvari76yn(5,1,1) = 0.


/gst,on,on
fini
*get,_numnode,node,0,count
*get,_numelem,elem,0,count
*get, _MAXELEMNUM, elem, 0, NUM, MAX
*get, _MAXNODENUM, node, 0, NUM, MAX
*get, _MAXELEMTYPE, etyp, 0, NUM, MAX
*get, _MAXREALCONST, rcon, 0, NUM, MAX
/go
/wb,load,end               !  done creating loads
/com,--- Number of total nodes = %_numnode%
/com,--- Number of contact elements = 1070
/com,--- Number of spring elements = 0
/com,--- Number of bearing elements = 0
/com,--- Number of solid elements = 994
/com,--- Number of condensed parts = 0
/com,--- Number of total elements = %_numelem%
*get,_wallbsol,active,,time,wall
/com,****************************************************************************
/com,*************************    SOLUTION       ********************************
/com,****************************************************************************
/solu
antype,4                   ! transient analysis type for quasi static solution
nlgeom,on                  ! Turn on Large Deformation Effects
_thickRatio=  0     ! Ratio of thick parts in the model
eqsl,sparse,,,,,1
nropt,full                 ! Use full Newton-Raphson
cntr,print,1               ! print out contact info and also make no initial contact an error
tintp,quas				   ! Backward Euler Time Integration for quasi static solution 
trnopt,,,,,,,,,yes        ! Enable numerical damping for quasi static solution
nldiag,cont,iter           ! print out contact info each equilibrium iteration
rescontrol,define,last,last,,dele	   ! Program Controlled
/com,****************************************************
/com,******************* SOLVE FOR LS 1 OF 3 ****************
/com,*** Set Displacements ***
CMBLOCK,_CM76UY_YP,NODE,       33
(8i10)
       295       304       305       306       307       308       309       310
       361       362       363       364       365       366       384       385
       386       387       388       389       393       394       395       396
       397       398       416       417       418       419       420       421
       422
cmsel,s,_CM76UY_YP
d,all,uy,%_loadvari76yp%
nsel,all

/com,*** Component For All Non-Zero UY Displacements ***
cmsel,s,_CM76uy_yp
cm,_DISPNONZEROUY,NODE
nsel,all

/nopr
/gopr
autots,off                 ! User turned off automatic time stepping
deltim,3.75e-002,3.75e-002,3.75e-002
time,5.
outres,erase
outres,all,none
outres,nsol,all,
outres,rsol,all
outres,eangl,all
outres,etmp,all
outres,veng,all
outres,strs,all,
outres,epel,all,
outres,eppl,all,
outres,cont,all,
! *********** WB SOLVE COMMAND ***********
! check interactive state
*get,ANSINTER_,active,,int
*if,ANSINTER_,ne,0,then
/eof
*endif
solve
/com *************** Write FE CONNECTORS ********* 
CEWRITE,file,ce,,INTE
/com,****************************************************
/com,*************** FINISHED SOLVE FOR LS 1 *************
/com,****************************************************
/com,******************* SOLVE FOR LS 2 OF 3 ****************
/com,*** Set Displacements ***
/nopr
/gopr
autots,off                 ! User turned off automatic time stepping
deltim,3.75e-002,3.75e-002,3.75e-002
time,10.
outres,erase
outres,all,none
outres,nsol,all,
outres,rsol,all
outres,eangl,all
outres,etmp,all
outres,veng,all
outres,strs,all,
outres,epel,all,
outres,eppl,all,
outres,cont,all,
solve
/com,****************************************************
/com,*************** FINISHED SOLVE FOR LS 2 *************
/com,****************************************************
/com,******************* SOLVE FOR LS 3 OF 3 ****************
/com,*** Set Displacements ***
/nopr
/gopr
autots,off                 ! User turned off automatic time stepping
deltim,3.75e-002,3.75e-002,3.75e-002
time,15.
outres,erase
outres,all,none
outres,nsol,all,
outres,rsol,all
outres,eangl,all
outres,etmp,all
outres,veng,all
outres,strs,all,
outres,epel,all,
outres,eppl,all,
outres,cont,all,
solve
/com,****************************************************
/com,*************** FINISHED SOLVE FOR LS 3 *************
*get,_wallasol,active,,time,wall
/nopr
*get,_numnode,node,0,count
*get,_numelem,elem,0,count
*get, _MAXELEMNUM, elem, 0, NUM, MAX
*get, _MAXNODENUM, node, 0, NUM, MAX,,,INTERNAL
*get, _MAXELEMTYPE, etyp, 0, NUM, MAX
*get, _MAXREALCONST, rcon, 0, NUM, MAX
*get,_NSOLTHREADS,active,0,ntfs
*get,_NSOLPROCESSES,active,0,npfs
/gopr
/post1
xmlo,ENCODING,ISO-8859-1
xmlo,parm
/xml,parm,xml
fini
/gopr
*get,_walldone,active,,time,wall
_preptime=(_wallbsol-_wallstrt)*3600
_solvtime=(_wallasol-_wallbsol)*3600
_posttime=(_walldone-_wallasol)*3600
_totaltim=(_walldone-_wallstrt)*3600
*get,_dlbratio,active,0,solu,dlbr
*get,_combtime,active,0,solu,comb
*get,_ssmode,active,0,solu,ssmm
*get,_ndofs,active,0,solu,ndof
/com,--- Total number of nodes = %_numnode%
/com,--- Total number of elements = %_numelem%
/com,--- Element load balance ratio = %_dlbratio%
/com,--- Time to combine distributed files = %_combtime%
/com,--- Sparse memory mode = %_ssmode%
/com,--- Number of DOF = %_ndofs%
/wb,file,end               ! done with WB generated input
