/batch
/config,noeldb,1     ! force off writing results to database
*get,_wallstrt,active,,time,wall
! ANSYS input file written by Workbench version 2024 R2
! File used for geometry attach: E:\ANK\WEEK_4\VISCO_WK4_5_files\dp0\Geom-4\DM\Geom-4.scdoc
/title,VISCO_WK4_5--Static Structural (B5)
! ****** Begin Custom Load Command Snippet ******
/COM, ACT Extensions:
/COM,     LSDYNA, 2024.2
/COM,     5f463412-bd3e-484b-87e7-cbc0a665e474, wbex
/COM,/COM,     ANSYSMotion, 2024.2
/COM,     20180725-3f81-49eb-9f31-41364844c769, wbex
/COM,
! ****** End   Custom Load Command Snippet ******
*DIM,_wb_ProjectScratch_dir,string,248
_wb_ProjectScratch_dir(1) = 'E:\ANK\WEEK_4\VISCO_WK4_5_files\dp0\SYS-4\MECH\'
*DIM,_wb_SolverFiles_dir,string,248
_wb_SolverFiles_dir(1) = 'E:\ANK\WEEK_4\VISCO_WK4_5_files\dp0\SYS-4\MECH\'
*DIM,_wb_userfiles_dir,string,248
_wb_userfiles_dir(1) = 'E:\ANK\WEEK_4\VISCO_WK4_5_files\user_files\'
/com,--- Data in consistent NMM units. See Solving Units in the help system for more information.
/units,MPA
/nopr
/wb,file,start              !  signify a WB generated input file
/prep7
! Turn off shape checking because checks already performed inside WB mesher.
! See help system for more information.
SHPP,OFF,,NOWARN
/nolist
etcon,set             ! allow ANSYS to choose best KEYOP's for 180x elements, resets any applicable keyopt to MAPDL defaults
/com,*********** Nodes for the whole assembly ***********
nblock,3,,486
(1i9,3e20.9e3)
        1     0.000000000E+00     0.000000000E+00    -1.250000000E+02
        2     0.000000000E+00     1.000000000E+01    -1.250000000E+02
        3    -3.000000000E+02     0.000000000E+00    -1.250000000E+02
        4    -2.823529412E+02     0.000000000E+00    -1.250000000E+02
        5    -2.647058824E+02     0.000000000E+00    -1.250000000E+02
        6    -2.470588235E+02     0.000000000E+00    -1.250000000E+02
        7    -2.294117647E+02     0.000000000E+00    -1.250000000E+02
        8    -2.117647059E+02     0.000000000E+00    -1.250000000E+02
        9    -1.941176471E+02     0.000000000E+00    -1.250000000E+02
       10    -1.764705882E+02     0.000000000E+00    -1.250000000E+02
       11    -1.588235294E+02     0.000000000E+00    -1.250000000E+02
       12    -1.411764706E+02     0.000000000E+00    -1.250000000E+02
       13    -1.235294118E+02     0.000000000E+00    -1.250000000E+02
       14    -1.058823529E+02     0.000000000E+00    -1.250000000E+02
       15    -8.823529412E+01     0.000000000E+00    -1.250000000E+02
       16    -7.058823529E+01     0.000000000E+00    -1.250000000E+02
       17    -5.294117647E+01     0.000000000E+00    -1.250000000E+02
       18    -3.529411765E+01     0.000000000E+00    -1.250000000E+02
       19    -1.764705882E+01     0.000000000E+00    -1.250000000E+02
       20    -3.000000000E+02     1.000000000E+01    -1.250000000E+02
! ... 423 like lines cut
/wb,elem,start            !  set before creation of elements
/com,*********** Elements for Body 1 'Plate' ***********
et,1,185
eblock,19,solid,,265
(19i9)
        1        1        1        1        0        0        0        0        8        0        1       96      112      105      105      123      123      123      123
        1        1        1        1        0        0        0        0        8        0        2       96      123       99       99      112      112      112      112
        1        1        1        1        0        0        0        0        8        0        3       96      132      123      123      105      105      105      105
        1        1        1        1        0        0        0        0        8        0        4       90      105       96       96      112      112      112      112
        1        1        1        1        0        0        0        0        8        0        5       90      112       96       96       99       99       99       99
        1        1        1        1        0        0        0        0        8        0        6       99      121      112      112      123      123      123      123
        1        1        1        1        0        0        0        0        8        0        7       84       99       96       96      123      123      123      123
        1        1        1        1        0        0        0        0        8        0        8       96      132      105      105      122      122      122      122
        1        1        1        1        0        0        0        0        8        0        9       83       96      132      132      123      123      123      123
        1        1        1        1        0        0        0        0        8        0       10       90      109      105      105      112      112      112      112
        1        1        1        1        0        0        0        0        8        0       11       90      112       99       99      117      117      117      117
        1        1        1        1        0        0        0        0        8        0       12       84      121       99       99      123      123      123      123
        1        1        1        1        0        0        0        0        8        0       13       99      131      112      112      121      121      121      121
        1        1        1        1        0        0        0        0        8        0       14       83       96      123      123       84       84       84       84
        1        1        1        1        0        0        0        0        8        0       15       96      105      126      126      122      122      122      122
        1        1        1        1        0        0        0        0        8        0       16       96       98      132      132      122      122      122      122
        1        1        1        1        0        0        0        0        8        0       17       56      123       83       83      132      132      132      132
        1        1        1        1        0        0        0        0        8        0       18       82       96      132      132       83       83       83       83
        1        1        1        1        0        0        0        0        8        0       19       90      112      117      117      109      109      109      109
        1        1        1        1        0        0        0        0        8        0       20       90      109      126      126      105      105      105      105
! ... 246 like lines cut
! Material Id = {74FCC8DB-7E2C-4D34-B0BF-59E91014FE43}
/com,*********** Elements for Body 2 'Lower Die' ***********
et,2,185
eblock,19,solid,,343
(19i9)
        2        2        2        2        0        0        0        0        8        0      266      185      197      288      288      280      280      280      280
        2        2        2        2        0        0        0        0        8        0      267      185      288      197      197      186      186      186      186
        2        2        2        2        0        0        0        0        8        0      268      186      288      197      197      196      196      196      196
        2        2        2        2        0        0        0        0        8        0      269      153      185      288      288      280      280      280      280
        2        2        2        2        0        0        0        0        8        0      270      153      288      185      185      186      186      186      186
        2        2        2        2        0        0        0        0        8        0      271      195      288      196      196      281      281      281      281
        2        2        2        2        0        0        0        0        8        0      272      186      187      288      288      196      196      196      196
        2        2        2        2        0        0        0        0        8        0      273      152      153      288      288      280      280      280      280
        2        2        2        2        0        0        0        0        8        0      274      152      288      153      153      186      186      186      186
        2        2        2        2        0        0        0        0        8        0      275      195      276      288      288      281      281      281      281
        2        2        2        2        0        0        0        0        8        0      276      276      280      288      288      281      281      281      281
        2        2        2        2        0        0        0        0        8        0      277      187      288      196      196      195      195      195      195
        2        2        2        2        0        0        0        0        8        0      278      152      187      288      288      186      186      186      186
        2        2        2        2        0        0        0        0        8        0      279      187      276      288      288      195      195      195      195
        2        2        2        2        0        0        0        0        8        0      280      152      288      276      276      280      280      280      280
        2        2        2        2        0        0        0        0        8        0      281      233      254      287      287      285      285      285      285
        2        2        2        2        0        0        0        0        8        0      282      233      257      287      287      254      254      254      254
        2        2        2        2        0        0        0        0        8        0      283      204      287      233      233      232      232      232      232
        2        2        2        2        0        0        0        0        8        0      284      204      287      224      224      285      285      285      285
        2        2        2        2        0        0        0        0        8        0      285      199      200      224      224      287      287      287      287
! ... 324 like lines cut
! Material Id = {A3093036-FF09-4E71-B329-10478565D830}
/com,*********** Elements for Body 3 'Upper Die' ***********
et,3,185
eblock,19,solid,,344
(19i9)
        3        3        3        3        0        0        0        0        8        0      609      295      442      409      409      301      301      301      301
        3        3        3        3        0        0        0        0        8        0      610      337      435      442      442      437      437      437      437
        3        3        3        3        0        0        0        0        8        0      611      331      442      336      336      436      436      436      436
        3        3        3        3        0        0        0        0        8        0      612      331      442      337      337      336      336      336      336
        3        3        3        3        0        0        0        0        8        0      613      402      436      442      442      439      439      439      439
        3        3        3        3        0        0        0        0        8        0      614      392      442      402      402      436      436      436      436
        3        3        3        3        0        0        0        0        8        0      615      409      442      435      435      437      437      437      437
        3        3        3        3        0        0        0        0        8        0      616      392      435      442      442      436      436      436      436
        3        3        3        3        0        0        0        0        8        0      617      296      301      300      300      442      442      442      442
        3        3        3        3        0        0        0        0        8        0      618      301      330      442      442      437      437      437      437
        3        3        3        3        0        0        0        0        8        0      619      301      330      331      331      442      442      442      442
        3        3        3        3        0        0        0        0        8        0      620      330      337      442      442      437      437      437      437
        3        3        3        3        0        0        0        0        8        0      621      330      337      331      331      442      442      442      442
        3        3        3        3        0        0        0        0        8        0      622      296      442      300      300      439      439      439      439
        3        3        3        3        0        0        0        0        8        0      623      301      442      409      409      437      437      437      437
        3        3        3        3        0        0        0        0        8        0      624      300      331      442      442      301      301      301      301
        3        3        3        3        0        0        0        0        8        0      625      300      442      331      331      439      439      439      439
        3        3        3        3        0        0        0        0        8        0      626      331      442      436      436      439      439      439      439
        3        3        3        3        0        0        0        0        8        0      627      408      441      416      416      422      422      422      422
        3        3        3        3        0        0        0        0        8        0      628      339      416      441      441      422      422      422      422
! ... 325 like lines cut
! Material Id = {6C4F2C9F-937E-4F95-AFE9-C4F5945E4210}
/wb,elem,end               !  done creating elements
/com,*********** Send User Defined Coordinate System(s) ***********
csys,0
toffst,273.15,      ! Temperature offset from absolute zero
/com,*********** Set Reference Temperature ***********
tref,22.
/wb,mat,start              !  starting to send materials
/com,*********** Send Materials ***********

TB,PRONY,1,1,6,BULK
TBTEMP,869
TBDATA,1,0.0222,5.009e-05,0.0224,0.0009945,0.0286,0.002022
TBDATA,7,0.2137,0.01925,0.394,0.1199,0.3191,2.033

TB,PRONY,1,1,6,SHEAR
TBTEMP,595.85
TBDATA,1,0.05523,6.658e-05,0.08205,0.001197,0.1215,0.01514
TBDATA,7,0.2286,0.1672,0.286,0.7497,0.22662,3.292
MP,DENS,1,2.74e-09,	! tonne mm^-3
MP,EX,1,70000,	! tonne s^-2 mm^-1
MP,NUXY,1,0.22,
MP,UVID,1,97a6bb41-32eb-488c-bbc2-9600d081f55b

Temperature = 'TEMP' ! Temperature
MP,DENS,2,4.62e-09,	! tonne mm^-3
MP,ALPX,2,9.4e-06,	! C^-1
MP,C,2,522000000,	! mm^2 s^-2 C^-1
MP,KXX,2,21.9,	! tonne mm s^-3 C^-1
MP,RSVX,2,0.0017,	! ohm mm
MP,EX,2,96000,	! tonne s^-2 mm^-1
MP,NUXY,2,0.36,
MP,MURX,2,1,
MP,UVID,2,283b7a77-d900-47ec-82e2-79ef1753b86c
MP,UMID,2,c4cc4a57-3226-45fe-b3f8-5a83eb845bd6

Temperature = 'TEMP' ! Temperature
MP,DENS,3,4.62e-09,	! tonne mm^-3
MP,ALPX,3,9.4e-06,	! C^-1
MP,C,3,522000000,	! mm^2 s^-2 C^-1
MP,KXX,3,21.9,	! tonne mm s^-3 C^-1
MP,RSVX,3,0.0017,	! ohm mm
MP,EX,3,96000,	! tonne s^-2 mm^-1
MP,NUXY,3,0.36,
MP,MURX,3,1,
MP,UVID,3,283b7a77-d900-47ec-82e2-79ef1753b86c
MP,UMID,3,c4cc4a57-3226-45fe-b3f8-5a83eb845bd6

/wb,mat,end                !  done sending materials
!************************* Model Summary ********************
!Plate,	VISCO,	matid,	1
!Lower Die,	Titanium Alloy,	matid,	2
!Upper Die,	Titanium Alloy,	matid,	3
!************************* End Model Summary ********************
! get the diagonal of the bounding box. Needed later for other things
*get,_xmin,node,,mnloc,x
*get,_ymin,node,,mnloc,y
*get,_zmin,node,,mnloc,z
*get,_xmax,node,,mxloc,x
*get,_ymax,node,,mxloc,y
*get,_zmax,node,,mxloc,z
_ASMDIAG=(_xmax-_xmin)*(_xmax-_xmin)+(_ymax-_ymin)*(_ymax-_ymin)+(_zmax-_zmin)*(_zmax-_zmin)
_ASMDIAG=SQRT(_ASMDIAG)
/wb,contact,start          !  starting to send contact
/com,*********** Create Contact "Frictional - No Selection To No Selection" ***********
/com,            Real Constant Set For Above Contact Is 5 & 4 
*set,tid,5
*set,cid,4
r,tid
r,cid
et,tid,170
et,cid,174
eblock,10,,,69
(15i9)
     1789        5        5        5        0       30       31       93       93
     1790        5        5        5        0       29       30       93       93
     1791        5        5        5        0       71       94       72       72
     1792        5        5        5        0       72       94       75       75
     1793        5        5        5        0       75       94       76       76
     1794        5        5        5        0       70       94       71       71
     1795        5        5        5        0       79       95       80       80
     1796        5        5        5        0       78       95       79       79
     1797        5        5        5        0       74       85       86       86
     1798        5        5        5        0       26       27       91       91
     1799        5        5        5        0       33       34       90       90
     1800        5        5        5        0       20       89       36       36
     1801        5        5        5        0        2       21       68       68
     1802        5        5        5        0       72       75       73       73
     1803        5        5        5        0       92      100       94       94
     1804        5        5        5        0       96       98      102      102
     1805        5        5        5        0       91      101       95       95
     1806        5        5        5        0       91       95      100      100
     1807        5        5        5        0       67       73       75       75
     1808        5        5        5        0       91      100       92       92
! ... 50 like lines cut
eblock,10,,,69
(15i9)
     1858        4        4        4        0       30       31       93       93
     1859        4        4        4        0       29       30       93       93
     1860        4        4        4        0       71       94       72       72
     1861        4        4        4        0       72       94       75       75
     1862        4        4        4        0       75       94       76       76
     1863        4        4        4        0       70       94       71       71
     1864        4        4        4        0       79       95       80       80
     1865        4        4        4        0       78       95       79       79
     1866        4        4        4        0       74       85       86       86
     1867        4        4        4        0       26       27       91       91
     1868        4        4        4        0       33       34       90       90
     1869        4        4        4        0       20       89       36       36
     1870        4        4        4        0        2       21       68       68
     1871        4        4        4        0       72       75       73       73
     1872        4        4        4        0       92      100       94       94
     1873        4        4        4        0       96       98      102      102
     1874        4        4        4        0       91      101       95       95
     1875        4        4        4        0       91       95      100      100
     1876        4        4        4        0       67       73       75       75
     1877        4        4        4        0       91      100       92       92
! ... 50 like lines cut
eblock,10,,,142
(15i9)
     1927        4        5        4        0      323      325      340      340
     1928        4        5        4        0      325      324      327      327
     1929        4        5        4        0      326      334      332      332
     1930        4        5        4        0      334      333      335      335
     1931        4        5        4        0      327      328      340      340
     1932        4        5        4        0      328      329      339      339
     1933        4        5        4        0      329      330      338      338
     1934        4        5        4        0      330      331      337      337
     1935        4        5        4        0      331      332      336      336
     1936        4        5        4        0      335      336      332      332
     1937        4        5        4        0      336      337      331      331
     1938        4        5        4        0      337      338      330      330
     1939        4        5        4        0      338      339      329      329
     1940        4        5        4        0      339      340      328      328
     1941        4        5        4        0      340      325      327      327
     1942        4        5        4        0      332      334      335      335
     1943        4        5        4        0      314      425      315      315
     1944        4        5        4        0      313      426      314      314
     1945        4        5        4        0      306      307      427      427
     1946        4        5        4        0      425      427      429      429
! ... 123 like lines cut
eblock,10,,,142
(15i9)
     2069        5        4        5        0      323      325      340      340
     2070        5        4        5        0      325      324      327      327
     2071        5        4        5        0      326      334      332      332
     2072        5        4        5        0      334      333      335      335
     2073        5        4        5        0      327      328      340      340
     2074        5        4        5        0      328      329      339      339
     2075        5        4        5        0      329      330      338      338
     2076        5        4        5        0      330      331      337      337
     2077        5        4        5        0      331      332      336      336
     2078        5        4        5        0      335      336      332      332
     2079        5        4        5        0      336      337      331      331
     2080        5        4        5        0      337      338      330      330
     2081        5        4        5        0      338      339      329      329
     2082        5        4        5        0      339      340      328      328
     2083        5        4        5        0      340      325      327      327
     2084        5        4        5        0      332      334      335      335
     2085        5        4        5        0      314      425      315      315
     2086        5        4        5        0      313      426      314      314
     2087        5        4        5        0      306      307      427      427
     2088        5        4        5        0      425      427      429      429
! ... 123 like lines cut
keyo,cid,8,2               ! auto create asymmetric contact (from Program Controlled setting)
keyo,cid,10,0              ! adjust contact stiffness each NR iteration (from Program Controlled setting)
keyo,cid,12,0              ! standard contact
mp,mu,cid,0.2       ! unitless
keyo,cid,2,0               ! augmented Lagrange (from Program Controlled setting)
keyo,cid,4,0               ! on Gauss point (from Program Controlled setting)
keyo,cid,9,0               ! use real geometry with stepped effects
keyo,cid,7,0               ! No Prediction
rmod,tid,3,1.       ! FKN
rmod,tid,5,0.       ! ICONT
rmod,tid,6,0.       ! PINB
rmod,tid,10,0.      ! CNOF
rmod,tid,12,0.      ! FKT
rmod,tid,36,40      ! WB DSID
rmod,cid,3,1.       ! FKN
rmod,cid,5,0.       ! ICONT
rmod,cid,6,0.       ! PINB
rmod,cid,10,0.      ! CNOF
rmod,cid,12,0.      ! FKT
rmod,cid,36,40      ! WB DSID
/com,*********** Create Contact "Frictional - No Selection To No Selection" ***********
/com,            Real Constant Set For Above Contact Is 7 & 6 
*set,tid,7
*set,cid,6
r,tid
r,cid
et,tid,170
et,cid,174
eblock,10,,,108
(15i9)
     2211        7        7        7        0      107      129      124      124
     2212        7        7        7        0      108      110      134      134
     2213        7        7        7        0      113      120      130      130
     2214        7        7        7        0      122      126      125      125
     2215        7        7        7        0      106      115      118      118
     2216        7        7        7        0      107      115      129      129
     2217        7        7        7        0      109      114      126      126
     2218        7        7        7        0      108      118      115      115
     2219        7        7        7        0      107      124      113      113
     2220        7        7        7        0      106      128      115      115
     2221        7        7        7        0      114      125      126      126
     2222        7        7        7        0      115      128      129      129
     2223        7        7        7        0      106      127      128      128
     2224        7        7        7        0      106      114      127      127
     2225        7        7        7        0      106      125      114      114
     2226        7        7        7        0      113      124      120      120
     2227        7        7        7        0      112      123      121      121
     2228        7        7        7        0      106      118      125      125
     2229        7        7        7        0      105      109      126      126
     2230        7        7        7        0      111      118      119      119
! ... 89 like lines cut
eblock,10,,,108
(15i9)
     2319        6        6        6        0      107      129      124      124
     2320        6        6        6        0      108      110      134      134
     2321        6        6        6        0      113      120      130      130
     2322        6        6        6        0      122      126      125      125
     2323        6        6        6        0      106      115      118      118
     2324        6        6        6        0      107      115      129      129
     2325        6        6        6        0      109      114      126      126
     2326        6        6        6        0      108      118      115      115
     2327        6        6        6        0      107      124      113      113
     2328        6        6        6        0      106      128      115      115
     2329        6        6        6        0      114      125      126      126
     2330        6        6        6        0      115      128      129      129
     2331        6        6        6        0      106      127      128      128
     2332        6        6        6        0      106      114      127      127
     2333        6        6        6        0      106      125      114      114
     2334        6        6        6        0      113      124      120      120
     2335        6        6        6        0      112      123      121      121
     2336        6        6        6        0      106      118      125      125
     2337        6        6        6        0      105      109      126      126
     2338        6        6        6        0      111      118      119      119
! ... 89 like lines cut
eblock,10,,,90
(15i9)
     2427        6        7        6        0      136      138      153      153
     2428        6        7        6        0      138      137      140      140
     2429        6        7        6        0      139      147      145      145
     2430        6        7        6        0      147      146      148      148
     2431        6        7        6        0      140      141      153      153
     2432        6        7        6        0      141      142      152      152
     2433        6        7        6        0      142      143      151      151
     2434        6        7        6        0      143      144      150      150
     2435        6        7        6        0      144      145      149      149
     2436        6        7        6        0      148      149      145      145
     2437        6        7        6        0      149      150      144      144
     2438        6        7        6        0      150      151      143      143
     2439        6        7        6        0      151      152      142      142
     2440        6        7        6        0      152      153      141      141
     2441        6        7        6        0      153      138      140      140
     2442        6        7        6        0      145      147      148      148
     2443        6        7        6        0      148      190      149      149
     2444        6        7        6        0      151      187      152      152
     2445        6        7        6        0      188      151      150      150
     2446        6        7        6        0      149      190      189      189
! ... 71 like lines cut
eblock,10,,,90
(15i9)
     2517        7        6        7        0      136      138      153      153
     2518        7        6        7        0      138      137      140      140
     2519        7        6        7        0      139      147      145      145
     2520        7        6        7        0      147      146      148      148
     2521        7        6        7        0      140      141      153      153
     2522        7        6        7        0      141      142      152      152
     2523        7        6        7        0      142      143      151      151
     2524        7        6        7        0      143      144      150      150
     2525        7        6        7        0      144      145      149      149
     2526        7        6        7        0      148      149      145      145
     2527        7        6        7        0      149      150      144      144
     2528        7        6        7        0      150      151      143      143
     2529        7        6        7        0      151      152      142      142
     2530        7        6        7        0      152      153      141      141
     2531        7        6        7        0      153      138      140      140
     2532        7        6        7        0      145      147      148      148
     2533        7        6        7        0      148      190      149      149
     2534        7        6        7        0      151      187      152      152
     2535        7        6        7        0      188      151      150      150
     2536        7        6        7        0      149      190      189      189
! ... 71 like lines cut
keyo,cid,8,2               ! auto create asymmetric contact (from Program Controlled setting)
keyo,cid,10,0              ! adjust contact stiffness each NR iteration (from Program Controlled setting)
keyo,cid,12,0              ! standard contact
mp,mu,cid,0.2       ! unitless
keyo,cid,2,0               ! augmented Lagrange (from Program Controlled setting)
keyo,cid,4,0               ! on Gauss point (from Program Controlled setting)
keyo,cid,9,0               ! use real geometry with stepped effects
keyo,cid,7,0               ! No Prediction
rmod,tid,3,1.       ! FKN
rmod,tid,5,0.       ! ICONT
rmod,tid,6,0.       ! PINB
rmod,tid,10,0.      ! CNOF
rmod,tid,12,0.      ! FKT
rmod,tid,36,43      ! WB DSID
rmod,cid,3,1.       ! FKN
rmod,cid,5,0.       ! ICONT
rmod,cid,6,0.       ! PINB
rmod,cid,10,0.      ! CNOF
rmod,cid,12,0.      ! FKT
rmod,cid,36,43      ! WB DSID
/com,*********** Create Contact "Contact Region 4" ***********
/com,            Real Constant Set For Above Contact Is 9 & 8 
*set,tid,9
*set,cid,8
r,tid
r,cid
et,tid,170
et,cid,174
eblock,10,,,50
(15i9)
     2607        9        9        9        0      107      129      124      124
     2608        9        9        9        0      108      110      134      134
     2609        9        9        9        0      113      120      130      130
     2610        9        9        9        0      106      115      118      118
     2611        9        9        9        0      107      115      129      129
     2612        9        9        9        0      108      118      115      115
     2613        9        9        9        0      107      124      113      113
     2614        9        9        9        0      106      128      115      115
     2615        9        9        9        0      115      128      129      129
     2616        9        9        9        0      113      124      120      120
     2617        9        9        9        0      108      119      118      118
     2618        9        9        9        0      110      113      116      116
     2619        9        9        9        0      107      113      110      110
     2620        9        9        9        0      113      130      116      116
     2621        9        9        9        0      108      133      119      119
     2622        9        9        9        0      108      107      110      110
     2623        9        9        9        0      108      115      107      107
     2624        9        9        9        0      108      134      133      133
     2625        9        9        9        0        1       43       19       19
     2626        9        9        9        0       37       45       38       38
! ... 31 like lines cut
eblock,10,,,50
(15i9)
     2657        8        8        8        0      107      129      124      124
     2658        8        8        8        0      108      110      134      134
     2659        8        8        8        0      113      120      130      130
     2660        8        8        8        0      106      115      118      118
     2661        8        8        8        0      107      115      129      129
     2662        8        8        8        0      108      118      115      115
     2663        8        8        8        0      107      124      113      113
     2664        8        8        8        0      106      128      115      115
     2665        8        8        8        0      115      128      129      129
     2666        8        8        8        0      113      124      120      120
     2667        8        8        8        0      108      119      118      118
     2668        8        8        8        0      110      113      116      116
     2669        8        8        8        0      107      113      110      110
     2670        8        8        8        0      113      130      116      116
     2671        8        8        8        0      108      133      119      119
     2672        8        8        8        0      108      107      110      110
     2673        8        8        8        0      108      115      107      107
     2674        8        8        8        0      108      134      133      133
     2675        8        8        8        0        1       43       19       19
     2676        8        8        8        0       37       45       38       38
! ... 31 like lines cut
eblock,10,,,52
(15i9)
     2707        8        9        8        0      228      256      229      229
     2708        8        9        8        0      200      201      257      257
     2709        8        9        8        0      233      254      234      234
     2710        8        9        8        0      254      256      258      258
     2711        8        9        8        0      194      256      255      255
     2712        8        9        8        0      229      256      230      230
     2713        8        9        8        0      194      255      195      195
     2714        8        9        8        0      192      256      193      193
     2715        8        9        8        0      199      200      257      257
     2716        8        9        8        0      192      230      256      256
     2717        8        9        8        0      233      257      254      254
     2718        8        9        8        0      198      199      231      231
     2719        8        9        8        0      193      256      194      194
     2720        8        9        8        0      232      257      233      233
     2721        8        9        8        0      182      197      203      203
     2722        8        9        8        0      254      255      256      256
     2723        8        9        8        0      255      259      260      260
     2724        8        9        8        0      225      236      226      226
     2725        8        9        8        0      255      257      259      259
     2726        8        9        8        0      199      257      231      231
! ... 33 like lines cut
eblock,10,,,52
(15i9)
     2759        9        8        9        0      228      256      229      229
     2760        9        8        9        0      200      201      257      257
     2761        9        8        9        0      233      254      234      234
     2762        9        8        9        0      254      256      258      258
     2763        9        8        9        0      194      256      255      255
     2764        9        8        9        0      229      256      230      230
     2765        9        8        9        0      194      255      195      195
     2766        9        8        9        0      192      256      193      193
     2767        9        8        9        0      199      200      257      257
     2768        9        8        9        0      192      230      256      256
     2769        9        8        9        0      233      257      254      254
     2770        9        8        9        0      198      199      231      231
     2771        9        8        9        0      193      256      194      194
     2772        9        8        9        0      232      257      233      233
     2773        9        8        9        0      182      197      203      203
     2774        9        8        9        0      254      255      256      256
     2775        9        8        9        0      255      259      260      260
     2776        9        8        9        0      225      236      226      226
     2777        9        8        9        0      255      257      259      259
     2778        9        8        9        0      199      257      231      231
! ... 33 like lines cut
keyo,cid,8,2               ! auto create asymmetric contact (from Program Controlled setting)
keyo,cid,10,0              ! adjust contact stiffness each NR iteration (from Program Controlled setting)
keyo,cid,12,5              ! bonded always
keyo,cid,18,1              ! small sliding turned on by application
keyo,cid,2,0               ! augmented Lagrange (from Program Controlled setting)
keyo,cid,4,0               ! on Gauss point (from Program Controlled setting)
keyo,cid,9,1               ! ignore initial gaps/penetration
keyo,cid,7,0               ! No Prediction
rmod,tid,3,1.       ! FKN
rmod,tid,5,0.       ! ICONT
rmod,tid,6,0.       ! PINB
rmod,tid,10,0.      ! CNOF
rmod,tid,12,0.      ! FKT
rmod,tid,36,25254   ! WB DSID
rmod,cid,3,1.       ! FKN
rmod,cid,5,0.       ! ICONT
rmod,cid,6,0.       ! PINB
rmod,cid,10,0.      ! CNOF
rmod,cid,12,0.      ! FKT
rmod,cid,36,25254   ! WB DSID
nsel,all
esel,all
/wb,contact,end            !  done creating contacts
/golist
/wb,load,start             !  starting to send loads
/com,*********** Fixed Supports ***********
CMBLOCK,_FIXEDSU,NODE,       72
(8i10)
       136       137       138       139       146       147       154       155
       156       157       158       159       160       161       162       163
       164       165       172       173       174       175       176       177
       178       179       180       181       182       183       184       191
       198       199       200       201       202       203       204       205
       206       207       208       209       210       211       212       213
       214       215       216       217       218       219       220       221
       222       223       224       225       226       227       228       229
       230       237       238       239       246       247       275       279

cmsel,s,_FIXEDSU
d,all,all
nsel,all
/com,******* Constant Zero Displacement X *******
CMBLOCK,_DISPZEROUX,NODE,       51
(8i10)
       290       291       292       293       294       295       296       297
       305       306       307       308       309       310       311       312
       313       314       315       316       317       318       319       320
       321       322       341       352       353       354       373       384
       385       386       387       388       389       390       391       393
       394       395       396       397       398       424       425       426
       427       428       429
cmsel,s,_DISPZEROUX
d,all,ux,0
nsel,all
/com,******* Constant Zero Displacement Z *******
CMBLOCK,_DISPZEROUZ,NODE,       32
(8i10)
       290       291       292       293       294       295       296       297
       305       306       307       308       309       310       311       312
       313       314       315       316       317       318       319       320
       321       322       424       425       426       427       428       429

cmsel,s,_DISPZEROUZ
d,all,uz,0
nsel,all
/com,*********** Create Displacement Tables and Functions ******

*DIM,_loadvari76yp,TABLE,5,1,1,TIME, , , 0
! Time values
*TAXIS,_loadvari76yp(1),1,0.,0.5,5.,10.,15.
! Load values
_loadvari76yp(1,1,1) = 0.
_loadvari76yp(2,1,1) = 0.
_loadvari76yp(3,1,1) = -25.
_loadvari76yp(4,1,1) = -25.
_loadvari76yp(5,1,1) = 0.



*DIM,_loadvari76yn,TABLE,5,1,1,TIME, , , 0
! Time values
*TAXIS,_loadvari76yn(1),1,0.,0.5,5.,10.,15.
! Load values
_loadvari76yn(1,1,1) = 0.
_loadvari76yn(2,1,1) = 0.
_loadvari76yn(3,1,1) = 25.
_loadvari76yn(4,1,1) = 25.
_loadvari76yn(5,1,1) = 0.


/gst,on,on
fini
*get,_numnode,node,0,count
*get,_numelem,elem,0,count
*get, _MAXELEMNUM, elem, 0, NUM, MAX
*get, _MAXNODENUM, node, 0, NUM, MAX
*get, _MAXELEMTYPE, etyp, 0, NUM, MAX
*get, _MAXREALCONST, rcon, 0, NUM, MAX
/go
/wb,load,end               !  done creating loads
/com,--- Number of total nodes = %_numnode%
/com,--- Number of contact elements = 1022
/com,--- Number of spring elements = 0
/com,--- Number of bearing elements = 0
/com,--- Number of solid elements = 952
/com,--- Number of condensed parts = 0
/com,--- Number of total elements = %_numelem%
*get,_wallbsol,active,,time,wall
/com,****************************************************************************
/com,*************************    SOLUTION       ********************************
/com,****************************************************************************
/solu
antype,4                   ! transient analysis type for quasi static solution
nlgeom,on                  ! Turn on Large Deformation Effects
_thickRatio=  0     ! Ratio of thick parts in the model
eqsl,sparse,,,,,1
nropt,full                 ! Use full Newton-Raphson
cntr,print,1               ! print out contact info and also make no initial contact an error
tintp,quas				   ! Backward Euler Time Integration for quasi static solution 
trnopt,,,,,,,,,yes        ! Enable numerical damping for quasi static solution
nldiag,cont,iter           ! print out contact info each equilibrium iteration
rescontrol,define,last,last,,dele	   ! Program Controlled
/com,****************************************************
/com,******************* SOLVE FOR LS 1 OF 3 ****************
/com,*** Set Displacements ***
CMBLOCK,_CM76UY_YP,NODE,       32
(8i10)
       290       291       292       293       294       295       296       297
       305       306       307       308       309       310       311       312
       313       314       315       316       317       318       319       320
       321       322       424       425       426       427       428       429

cmsel,s,_CM76UY_YP
d,all,uy,%_loadvari76yp%
nsel,all

/com,*** Component For All Non-Zero UY Displacements ***
cmsel,s,_CM76uy_yp
cm,_DISPNONZEROUY,NODE
nsel,all

/nopr
/gopr
autots,off                 ! User turned off automatic time stepping
deltim,3.75e-002,3.75e-002,3.75e-002
time,5.
outres,erase
outres,all,none
outres,nsol,all,
outres,rsol,all
outres,eangl,all
outres,etmp,all
outres,veng,all
outres,strs,all,
outres,epel,all,
outres,eppl,all,
outres,cont,all,
! *********** WB SOLVE COMMAND ***********
! check interactive state
*get,ANSINTER_,active,,int
*if,ANSINTER_,ne,0,then
/eof
*endif
solve
/com *************** Write FE CONNECTORS ********* 
CEWRITE,file,ce,,INTE
/com,****************************************************
/com,*************** FINISHED SOLVE FOR LS 1 *************
/com,****************************************************
/com,******************* SOLVE FOR LS 2 OF 3 ****************
/com,*** Set Displacements ***
/nopr
/gopr
autots,off                 ! User turned off automatic time stepping
deltim,3.75e-002,3.75e-002,3.75e-002
time,10.
outres,erase
outres,all,none
outres,nsol,all,
outres,rsol,all
outres,eangl,all
outres,etmp,all
outres,veng,all
outres,strs,all,
outres,epel,all,
outres,eppl,all,
outres,cont,all,
solve
/com,****************************************************
/com,*************** FINISHED SOLVE FOR LS 2 *************
/com,****************************************************
/com,******************* SOLVE FOR LS 3 OF 3 ****************
/com,*** Set Displacements ***
/nopr
/gopr
autots,off                 ! User turned off automatic time stepping
deltim,3.75e-002,3.75e-002,3.75e-002
time,15.
outres,erase
outres,all,none
outres,nsol,all,
outres,rsol,all
outres,eangl,all
outres,etmp,all
outres,veng,all
outres,strs,all,
outres,epel,all,
outres,eppl,all,
outres,cont,all,
solve
/com,****************************************************
/com,*************** FINISHED SOLVE FOR LS 3 *************
*get,_wallasol,active,,time,wall
/nopr
*get,_numnode,node,0,count
*get,_numelem,elem,0,count
*get, _MAXELEMNUM, elem, 0, NUM, MAX
*get, _MAXNODENUM, node, 0, NUM, MAX,,,INTERNAL
*get, _MAXELEMTYPE, etyp, 0, NUM, MAX
*get, _MAXREALCONST, rcon, 0, NUM, MAX
*get,_NSOLTHREADS,active,0,ntfs
*get,_NSOLPROCESSES,active,0,npfs
/gopr
/post1
xmlo,ENCODING,ISO-8859-1
xmlo,parm
/xml,parm,xml
fini
/gopr
*get,_walldone,active,,time,wall
_preptime=(_wallbsol-_wallstrt)*3600
_solvtime=(_wallasol-_wallbsol)*3600
_posttime=(_walldone-_wallasol)*3600
_totaltim=(_walldone-_wallstrt)*3600
*get,_dlbratio,active,0,solu,dlbr
*get,_combtime,active,0,solu,comb
*get,_ssmode,active,0,solu,ssmm
*get,_ndofs,active,0,solu,ndof
/com,--- Total number of nodes = %_numnode%
/com,--- Total number of elements = %_numelem%
/com,--- Element load balance ratio = %_dlbratio%
/com,--- Time to combine distributed files = %_combtime%
/com,--- Sparse memory mode = %_ssmode%
/com,--- Number of DOF = %_ndofs%
/wb,file,end               ! done with WB generated input
